# File generated by Flopy version 3.3.6 on 04/13/2023 at 23:02:49.
BEGIN options
  BUDGET  FILEOUT  eaa_flow_model.cbc
  BUDGETCSV  FILEOUT  eaa_flow_model_budget.csv
  HEAD  FILEOUT  eaa_flow_model.hds
  HEAD  PRINT_FORMAT  COLUMNS  10  WIDTH  20  DIGITS  10  GENERAL
END options

BEGIN period  1
  SAVE  HEAD  LAST
  SAVE  BUDGET  LAST
  PRINT  HEAD  FIRST
  PRINT  HEAD  LAST
  PRINT  BUDGET  LAST
END period  1

BEGIN period  2
  SAVE  HEAD  LAST
  SAVE  BUDGET  LAST
  PRINT  HEAD  FIRST
  PRINT  HEAD  LAST
  PRINT  BUDGET  LAST
END period  2

BEGIN period  3
  SAVE  HEAD  LAST
  SAVE  BUDGET  LAST
  PRINT  HEAD  FIRST
  PRINT  HEAD  LAST
  PRINT  BUDGET  LAST
END period  3

BEGIN period  4
  SAVE  HEAD  LAST
  SAVE  BUDGET  LAST
  PRINT  HEAD  FIRST
  PRINT  HEAD  LAST
  PRINT  BUDGET  LAST
END period  4

BEGIN period  5
  SAVE  HEAD  LAST
  SAVE  BUDGET  LAST
  PRINT  HEAD  FIRST
  PRINT  HEAD  LAST
  PRINT  BUDGET  LAST
END period  5

BEGIN period  6
  SAVE  HEAD  LAST
  SAVE  BUDGET  LAST
  PRINT  HEAD  FIRST
  PRINT  HEAD  LAST
  PRINT  BUDGET  LAST
END period  6

BEGIN period  7
  SAVE  HEAD  LAST
  SAVE  BUDGET  LAST
  PRINT  HEAD  FIRST
  PRINT  HEAD  LAST
  PRINT  BUDGET  LAST
END period  7

BEGIN period  8
  SAVE  HEAD  LAST
  SAVE  BUDGET  LAST
  PRINT  HEAD  FIRST
  PRINT  HEAD  LAST
  PRINT  BUDGET  LAST
END period  8

BEGIN period  9
  SAVE  HEAD  LAST
  SAVE  BUDGET  LAST
  PRINT  HEAD  FIRST
  PRINT  HEAD  LAST
  PRINT  BUDGET  LAST
END period  9

BEGIN period  10
  SAVE  HEAD  LAST
  SAVE  BUDGET  LAST
  PRINT  HEAD  FIRST
  PRINT  HEAD  LAST
  PRINT  BUDGET  LAST
END period  10

BEGIN period  11
  SAVE  HEAD  LAST
  SAVE  BUDGET  LAST
  PRINT  HEAD  FIRST
  PRINT  HEAD  LAST
  PRINT  BUDGET  LAST
END period  11

BEGIN period  12
  SAVE  HEAD  LAST
  SAVE  BUDGET  LAST
  PRINT  HEAD  FIRST
  PRINT  HEAD  LAST
  PRINT  BUDGET  LAST
END period  12

BEGIN period  13
  SAVE  HEAD  LAST
  SAVE  BUDGET  LAST
  PRINT  HEAD  FIRST
  PRINT  HEAD  LAST
  PRINT  BUDGET  LAST
END period  13

BEGIN period  14
  SAVE  HEAD  LAST
  SAVE  BUDGET  LAST
  PRINT  HEAD  FIRST
  PRINT  HEAD  LAST
  PRINT  BUDGET  LAST
END period  14

BEGIN period  15
  SAVE  HEAD  LAST
  SAVE  BUDGET  LAST
  PRINT  HEAD  FIRST
  PRINT  HEAD  LAST
  PRINT  BUDGET  LAST
END period  15

BEGIN period  16
  SAVE  HEAD  LAST
  SAVE  BUDGET  LAST
  PRINT  HEAD  FIRST
  PRINT  HEAD  LAST
  PRINT  BUDGET  LAST
END period  16

BEGIN period  17
  SAVE  HEAD  LAST
  SAVE  BUDGET  LAST
  PRINT  HEAD  FIRST
  PRINT  HEAD  LAST
  PRINT  BUDGET  LAST
END period  17

BEGIN period  18
  SAVE  HEAD  LAST
  SAVE  BUDGET  LAST
  PRINT  HEAD  FIRST
  PRINT  HEAD  LAST
  PRINT  BUDGET  LAST
END period  18

BEGIN period  19
  SAVE  HEAD  LAST
  SAVE  BUDGET  LAST
  PRINT  HEAD  FIRST
  PRINT  HEAD  LAST
  PRINT  BUDGET  LAST
END period  19

BEGIN period  20
  SAVE  HEAD  LAST
  SAVE  BUDGET  LAST
  PRINT  HEAD  FIRST
  PRINT  HEAD  LAST
  PRINT  BUDGET  LAST
END period  20

BEGIN period  21
  SAVE  HEAD  LAST
  SAVE  BUDGET  LAST
  PRINT  HEAD  FIRST
  PRINT  HEAD  LAST
  PRINT  BUDGET  LAST
END period  21

BEGIN period  22
  SAVE  HEAD  LAST
  SAVE  BUDGET  LAST
  PRINT  HEAD  FIRST
  PRINT  HEAD  LAST
  PRINT  BUDGET  LAST
END period  22

BEGIN period  23
  SAVE  HEAD  LAST
  SAVE  BUDGET  LAST
  PRINT  HEAD  FIRST
  PRINT  HEAD  LAST
  PRINT  BUDGET  LAST
END period  23

BEGIN period  24
  SAVE  HEAD  LAST
  SAVE  BUDGET  LAST
  PRINT  HEAD  FIRST
  PRINT  HEAD  LAST
  PRINT  BUDGET  LAST
END period  24

BEGIN period  25
  SAVE  HEAD  LAST
  SAVE  BUDGET  LAST
  PRINT  HEAD  FIRST
  PRINT  HEAD  LAST
  PRINT  BUDGET  LAST
END period  25

BEGIN period  26
  SAVE  HEAD  LAST
  SAVE  BUDGET  LAST
  PRINT  HEAD  FIRST
  PRINT  HEAD  LAST
  PRINT  BUDGET  LAST
END period  26

BEGIN period  27
  SAVE  HEAD  LAST
  SAVE  BUDGET  LAST
  PRINT  HEAD  FIRST
  PRINT  HEAD  LAST
  PRINT  BUDGET  LAST
END period  27

BEGIN period  28
  SAVE  HEAD  LAST
  SAVE  BUDGET  LAST
  PRINT  HEAD  FIRST
  PRINT  HEAD  LAST
  PRINT  BUDGET  LAST
END period  28

BEGIN period  29
  SAVE  HEAD  LAST
  SAVE  BUDGET  LAST
  PRINT  HEAD  FIRST
  PRINT  HEAD  LAST
  PRINT  BUDGET  LAST
END period  29

BEGIN period  30
  SAVE  HEAD  LAST
  SAVE  BUDGET  LAST
  PRINT  HEAD  FIRST
  PRINT  HEAD  LAST
  PRINT  BUDGET  LAST
END period  30

BEGIN period  31
  SAVE  HEAD  LAST
  SAVE  BUDGET  LAST
  PRINT  HEAD  FIRST
  PRINT  HEAD  LAST
  PRINT  BUDGET  LAST
END period  31

BEGIN period  32
  SAVE  HEAD  LAST
  SAVE  BUDGET  LAST
  PRINT  HEAD  FIRST
  PRINT  HEAD  LAST
  PRINT  BUDGET  LAST
END period  32

BEGIN period  33
  SAVE  HEAD  LAST
  SAVE  BUDGET  LAST
  PRINT  HEAD  FIRST
  PRINT  HEAD  LAST
  PRINT  BUDGET  LAST
END period  33

BEGIN period  34
  SAVE  HEAD  LAST
  SAVE  BUDGET  LAST
  PRINT  HEAD  FIRST
  PRINT  HEAD  LAST
  PRINT  BUDGET  LAST
END period  34

BEGIN period  35
  SAVE  HEAD  LAST
  SAVE  BUDGET  LAST
  PRINT  HEAD  FIRST
  PRINT  HEAD  LAST
  PRINT  BUDGET  LAST
END period  35

BEGIN period  36
  SAVE  HEAD  LAST
  SAVE  BUDGET  LAST
  PRINT  HEAD  FIRST
  PRINT  HEAD  LAST
  PRINT  BUDGET  LAST
END period  36

BEGIN period  37
  SAVE  HEAD  LAST
  SAVE  BUDGET  LAST
  PRINT  HEAD  FIRST
  PRINT  HEAD  LAST
  PRINT  BUDGET  LAST
END period  37

BEGIN period  38
  SAVE  HEAD  LAST
  SAVE  BUDGET  LAST
  PRINT  HEAD  FIRST
  PRINT  HEAD  LAST
  PRINT  BUDGET  LAST
END period  38

BEGIN period  39
  SAVE  HEAD  LAST
  SAVE  BUDGET  LAST
  PRINT  HEAD  FIRST
  PRINT  HEAD  LAST
  PRINT  BUDGET  LAST
END period  39

BEGIN period  40
  SAVE  HEAD  LAST
  SAVE  BUDGET  LAST
  PRINT  HEAD  FIRST
  PRINT  HEAD  LAST
  PRINT  BUDGET  LAST
END period  40

BEGIN period  41
  SAVE  HEAD  LAST
  SAVE  BUDGET  LAST
  PRINT  HEAD  FIRST
  PRINT  HEAD  LAST
  PRINT  BUDGET  LAST
END period  41

BEGIN period  42
  SAVE  HEAD  LAST
  SAVE  BUDGET  LAST
  PRINT  HEAD  FIRST
  PRINT  HEAD  LAST
  PRINT  BUDGET  LAST
END period  42

BEGIN period  43
  SAVE  HEAD  LAST
  SAVE  BUDGET  LAST
  PRINT  HEAD  FIRST
  PRINT  HEAD  LAST
  PRINT  BUDGET  LAST
END period  43

BEGIN period  44
  SAVE  HEAD  LAST
  SAVE  BUDGET  LAST
  PRINT  HEAD  FIRST
  PRINT  HEAD  LAST
  PRINT  BUDGET  LAST
END period  44

BEGIN period  45
  SAVE  HEAD  LAST
  SAVE  BUDGET  LAST
  PRINT  HEAD  FIRST
  PRINT  HEAD  LAST
  PRINT  BUDGET  LAST
END period  45

BEGIN period  46
  SAVE  HEAD  LAST
  SAVE  BUDGET  LAST
  PRINT  HEAD  FIRST
  PRINT  HEAD  LAST
  PRINT  BUDGET  LAST
END period  46

BEGIN period  47
  SAVE  HEAD  LAST
  SAVE  BUDGET  LAST
  PRINT  HEAD  FIRST
  PRINT  HEAD  LAST
  PRINT  BUDGET  LAST
END period  47

BEGIN period  48
  SAVE  HEAD  LAST
  SAVE  BUDGET  LAST
  PRINT  HEAD  FIRST
  PRINT  HEAD  LAST
  PRINT  BUDGET  LAST
END period  48

BEGIN period  49
  SAVE  HEAD  LAST
  SAVE  BUDGET  LAST
  PRINT  HEAD  FIRST
  PRINT  HEAD  LAST
  PRINT  BUDGET  LAST
END period  49

BEGIN period  50
  SAVE  HEAD  LAST
  SAVE  BUDGET  LAST
  PRINT  HEAD  FIRST
  PRINT  HEAD  LAST
  PRINT  BUDGET  LAST
END period  50

BEGIN period  51
  SAVE  HEAD  LAST
  SAVE  BUDGET  LAST
  PRINT  HEAD  FIRST
  PRINT  HEAD  LAST
  PRINT  BUDGET  LAST
END period  51

BEGIN period  52
  SAVE  HEAD  LAST
  SAVE  BUDGET  LAST
  PRINT  HEAD  FIRST
  PRINT  HEAD  LAST
  PRINT  BUDGET  LAST
END period  52

BEGIN period  53
  SAVE  HEAD  LAST
  SAVE  BUDGET  LAST
  PRINT  HEAD  FIRST
  PRINT  HEAD  LAST
  PRINT  BUDGET  LAST
END period  53

BEGIN period  54
  SAVE  HEAD  LAST
  SAVE  BUDGET  LAST
  PRINT  HEAD  FIRST
  PRINT  HEAD  LAST
  PRINT  BUDGET  LAST
END period  54

BEGIN period  55
  SAVE  HEAD  LAST
  SAVE  BUDGET  LAST
  PRINT  HEAD  FIRST
  PRINT  HEAD  LAST
  PRINT  BUDGET  LAST
END period  55

BEGIN period  56
  SAVE  HEAD  LAST
  SAVE  BUDGET  LAST
  PRINT  HEAD  FIRST
  PRINT  HEAD  LAST
  PRINT  BUDGET  LAST
END period  56

BEGIN period  57
  SAVE  HEAD  LAST
  SAVE  BUDGET  LAST
  PRINT  HEAD  FIRST
  PRINT  HEAD  LAST
  PRINT  BUDGET  LAST
END period  57

BEGIN period  58
  SAVE  HEAD  LAST
  SAVE  BUDGET  LAST
  PRINT  HEAD  FIRST
  PRINT  HEAD  LAST
  PRINT  BUDGET  LAST
END period  58

BEGIN period  59
  SAVE  HEAD  LAST
  SAVE  BUDGET  LAST
  PRINT  HEAD  FIRST
  PRINT  HEAD  LAST
  PRINT  BUDGET  LAST
END period  59

BEGIN period  60
  SAVE  HEAD  LAST
  SAVE  BUDGET  LAST
  PRINT  HEAD  FIRST
  PRINT  HEAD  LAST
  PRINT  BUDGET  LAST
END period  60

BEGIN period  61
  SAVE  HEAD  LAST
  SAVE  BUDGET  LAST
  PRINT  HEAD  FIRST
  PRINT  HEAD  LAST
  PRINT  BUDGET  LAST
END period  61

BEGIN period  62
  SAVE  HEAD  LAST
  SAVE  BUDGET  LAST
  PRINT  HEAD  FIRST
  PRINT  HEAD  LAST
  PRINT  BUDGET  LAST
END period  62

BEGIN period  63
  SAVE  HEAD  LAST
  SAVE  BUDGET  LAST
  PRINT  HEAD  FIRST
  PRINT  HEAD  LAST
  PRINT  BUDGET  LAST
END period  63

BEGIN period  64
  SAVE  HEAD  LAST
  SAVE  BUDGET  LAST
  PRINT  HEAD  FIRST
  PRINT  HEAD  LAST
  PRINT  BUDGET  LAST
END period  64

BEGIN period  65
  SAVE  HEAD  LAST
  SAVE  BUDGET  LAST
  PRINT  HEAD  FIRST
  PRINT  HEAD  LAST
  PRINT  BUDGET  LAST
END period  65

BEGIN period  66
  SAVE  HEAD  LAST
  SAVE  BUDGET  LAST
  PRINT  HEAD  FIRST
  PRINT  HEAD  LAST
  PRINT  BUDGET  LAST
END period  66

BEGIN period  67
  SAVE  HEAD  LAST
  SAVE  BUDGET  LAST
  PRINT  HEAD  FIRST
  PRINT  HEAD  LAST
  PRINT  BUDGET  LAST
END period  67

BEGIN period  68
  SAVE  HEAD  LAST
  SAVE  BUDGET  LAST
  PRINT  HEAD  FIRST
  PRINT  HEAD  LAST
  PRINT  BUDGET  LAST
END period  68

BEGIN period  69
  SAVE  HEAD  LAST
  SAVE  BUDGET  LAST
  PRINT  HEAD  FIRST
  PRINT  HEAD  LAST
  PRINT  BUDGET  LAST
END period  69

BEGIN period  70
  SAVE  HEAD  LAST
  SAVE  BUDGET  LAST
  PRINT  HEAD  FIRST
  PRINT  HEAD  LAST
  PRINT  BUDGET  LAST
END period  70

BEGIN period  71
  SAVE  HEAD  LAST
  SAVE  BUDGET  LAST
  PRINT  HEAD  FIRST
  PRINT  HEAD  LAST
  PRINT  BUDGET  LAST
END period  71

BEGIN period  72
  SAVE  HEAD  LAST
  SAVE  BUDGET  LAST
  PRINT  HEAD  FIRST
  PRINT  HEAD  LAST
  PRINT  BUDGET  LAST
END period  72

BEGIN period  73
  SAVE  HEAD  LAST
  SAVE  BUDGET  LAST
  PRINT  HEAD  FIRST
  PRINT  HEAD  LAST
  PRINT  BUDGET  LAST
END period  73

BEGIN period  74
  SAVE  HEAD  LAST
  SAVE  BUDGET  LAST
  PRINT  HEAD  FIRST
  PRINT  HEAD  LAST
  PRINT  BUDGET  LAST
END period  74

BEGIN period  75
  SAVE  HEAD  LAST
  SAVE  BUDGET  LAST
  PRINT  HEAD  FIRST
  PRINT  HEAD  LAST
  PRINT  BUDGET  LAST
END period  75

BEGIN period  76
  SAVE  HEAD  LAST
  SAVE  BUDGET  LAST
  PRINT  HEAD  FIRST
  PRINT  HEAD  LAST
  PRINT  BUDGET  LAST
END period  76

BEGIN period  77
  SAVE  HEAD  LAST
  SAVE  BUDGET  LAST
  PRINT  HEAD  FIRST
  PRINT  HEAD  LAST
  PRINT  BUDGET  LAST
END period  77

BEGIN period  78
  SAVE  HEAD  LAST
  SAVE  BUDGET  LAST
  PRINT  HEAD  FIRST
  PRINT  HEAD  LAST
  PRINT  BUDGET  LAST
END period  78

BEGIN period  79
  SAVE  HEAD  LAST
  SAVE  BUDGET  LAST
  PRINT  HEAD  FIRST
  PRINT  HEAD  LAST
  PRINT  BUDGET  LAST
END period  79

BEGIN period  80
  SAVE  HEAD  LAST
  SAVE  BUDGET  LAST
  PRINT  HEAD  FIRST
  PRINT  HEAD  LAST
  PRINT  BUDGET  LAST
END period  80

BEGIN period  81
  SAVE  HEAD  LAST
  SAVE  BUDGET  LAST
  PRINT  HEAD  FIRST
  PRINT  HEAD  LAST
  PRINT  BUDGET  LAST
END period  81

BEGIN period  82
  SAVE  HEAD  LAST
  SAVE  BUDGET  LAST
  PRINT  HEAD  FIRST
  PRINT  HEAD  LAST
  PRINT  BUDGET  LAST
END period  82

BEGIN period  83
  SAVE  HEAD  LAST
  SAVE  BUDGET  LAST
  PRINT  HEAD  FIRST
  PRINT  HEAD  LAST
  PRINT  BUDGET  LAST
END period  83

BEGIN period  84
  SAVE  HEAD  LAST
  SAVE  BUDGET  LAST
  PRINT  HEAD  FIRST
  PRINT  HEAD  LAST
  PRINT  BUDGET  LAST
END period  84

BEGIN period  85
  SAVE  HEAD  LAST
  SAVE  BUDGET  LAST
  PRINT  HEAD  FIRST
  PRINT  HEAD  LAST
  PRINT  BUDGET  LAST
END period  85

BEGIN period  86
  SAVE  HEAD  LAST
  SAVE  BUDGET  LAST
  PRINT  HEAD  FIRST
  PRINT  HEAD  LAST
  PRINT  BUDGET  LAST
END period  86

BEGIN period  87
  SAVE  HEAD  LAST
  SAVE  BUDGET  LAST
  PRINT  HEAD  FIRST
  PRINT  HEAD  LAST
  PRINT  BUDGET  LAST
END period  87

BEGIN period  88
  SAVE  HEAD  LAST
  SAVE  BUDGET  LAST
  PRINT  HEAD  FIRST
  PRINT  HEAD  LAST
  PRINT  BUDGET  LAST
END period  88

BEGIN period  89
  SAVE  HEAD  LAST
  SAVE  BUDGET  LAST
  PRINT  HEAD  FIRST
  PRINT  HEAD  LAST
  PRINT  BUDGET  LAST
END period  89

BEGIN period  90
  SAVE  HEAD  LAST
  SAVE  BUDGET  LAST
  PRINT  HEAD  FIRST
  PRINT  HEAD  LAST
  PRINT  BUDGET  LAST
END period  90

BEGIN period  91
  SAVE  HEAD  LAST
  SAVE  BUDGET  LAST
  PRINT  HEAD  FIRST
  PRINT  HEAD  LAST
  PRINT  BUDGET  LAST
END period  91

BEGIN period  92
  SAVE  HEAD  LAST
  SAVE  BUDGET  LAST
  PRINT  HEAD  FIRST
  PRINT  HEAD  LAST
  PRINT  BUDGET  LAST
END period  92

BEGIN period  93
  SAVE  HEAD  LAST
  SAVE  BUDGET  LAST
  PRINT  HEAD  FIRST
  PRINT  HEAD  LAST
  PRINT  BUDGET  LAST
END period  93

BEGIN period  94
  SAVE  HEAD  LAST
  SAVE  BUDGET  LAST
  PRINT  HEAD  FIRST
  PRINT  HEAD  LAST
  PRINT  BUDGET  LAST
END period  94

BEGIN period  95
  SAVE  HEAD  LAST
  SAVE  BUDGET  LAST
  PRINT  HEAD  FIRST
  PRINT  HEAD  LAST
  PRINT  BUDGET  LAST
END period  95

BEGIN period  96
  SAVE  HEAD  LAST
  SAVE  BUDGET  LAST
  PRINT  HEAD  FIRST
  PRINT  HEAD  LAST
  PRINT  BUDGET  LAST
END period  96

BEGIN period  97
  SAVE  HEAD  LAST
  SAVE  BUDGET  LAST
  PRINT  HEAD  FIRST
  PRINT  HEAD  LAST
  PRINT  BUDGET  LAST
END period  97

BEGIN period  98
  SAVE  HEAD  LAST
  SAVE  BUDGET  LAST
  PRINT  HEAD  FIRST
  PRINT  HEAD  LAST
  PRINT  BUDGET  LAST
END period  98

BEGIN period  99
  SAVE  HEAD  LAST
  SAVE  BUDGET  LAST
  PRINT  HEAD  FIRST
  PRINT  HEAD  LAST
  PRINT  BUDGET  LAST
END period  99

BEGIN period  100
  SAVE  HEAD  LAST
  SAVE  BUDGET  LAST
  PRINT  HEAD  FIRST
  PRINT  HEAD  LAST
  PRINT  BUDGET  LAST
END period  100

BEGIN period  101
  SAVE  HEAD  LAST
  SAVE  BUDGET  LAST
  PRINT  HEAD  FIRST
  PRINT  HEAD  LAST
  PRINT  BUDGET  LAST
END period  101

BEGIN period  102
  SAVE  HEAD  LAST
  SAVE  BUDGET  LAST
  PRINT  HEAD  FIRST
  PRINT  HEAD  LAST
  PRINT  BUDGET  LAST
END period  102

BEGIN period  103
  SAVE  HEAD  LAST
  SAVE  BUDGET  LAST
  PRINT  HEAD  FIRST
  PRINT  HEAD  LAST
  PRINT  BUDGET  LAST
END period  103

BEGIN period  104
  SAVE  HEAD  LAST
  SAVE  BUDGET  LAST
  PRINT  HEAD  FIRST
  PRINT  HEAD  LAST
  PRINT  BUDGET  LAST
END period  104

BEGIN period  105
  SAVE  HEAD  LAST
  SAVE  BUDGET  LAST
  PRINT  HEAD  FIRST
  PRINT  HEAD  LAST
  PRINT  BUDGET  LAST
END period  105

BEGIN period  106
  SAVE  HEAD  LAST
  SAVE  BUDGET  LAST
  PRINT  HEAD  FIRST
  PRINT  HEAD  LAST
  PRINT  BUDGET  LAST
END period  106

BEGIN period  107
  SAVE  HEAD  LAST
  SAVE  BUDGET  LAST
  PRINT  HEAD  FIRST
  PRINT  HEAD  LAST
  PRINT  BUDGET  LAST
END period  107

BEGIN period  108
  SAVE  HEAD  LAST
  SAVE  BUDGET  LAST
  PRINT  HEAD  FIRST
  PRINT  HEAD  LAST
  PRINT  BUDGET  LAST
END period  108

BEGIN period  109
  SAVE  HEAD  LAST
  SAVE  BUDGET  LAST
  PRINT  HEAD  FIRST
  PRINT  HEAD  LAST
  PRINT  BUDGET  LAST
END period  109

BEGIN period  110
  SAVE  HEAD  LAST
  SAVE  BUDGET  LAST
  PRINT  HEAD  FIRST
  PRINT  HEAD  LAST
  PRINT  BUDGET  LAST
END period  110

BEGIN period  111
  SAVE  HEAD  LAST
  SAVE  BUDGET  LAST
  PRINT  HEAD  FIRST
  PRINT  HEAD  LAST
  PRINT  BUDGET  LAST
END period  111

BEGIN period  112
  SAVE  HEAD  LAST
  SAVE  BUDGET  LAST
  PRINT  HEAD  FIRST
  PRINT  HEAD  LAST
  PRINT  BUDGET  LAST
END period  112

BEGIN period  113
  SAVE  HEAD  LAST
  SAVE  BUDGET  LAST
  PRINT  HEAD  FIRST
  PRINT  HEAD  LAST
  PRINT  BUDGET  LAST
END period  113

BEGIN period  114
  SAVE  HEAD  LAST
  SAVE  BUDGET  LAST
  PRINT  HEAD  FIRST
  PRINT  HEAD  LAST
  PRINT  BUDGET  LAST
END period  114

BEGIN period  115
  SAVE  HEAD  LAST
  SAVE  BUDGET  LAST
  PRINT  HEAD  FIRST
  PRINT  HEAD  LAST
  PRINT  BUDGET  LAST
END period  115

BEGIN period  116
  SAVE  HEAD  LAST
  SAVE  BUDGET  LAST
  PRINT  HEAD  FIRST
  PRINT  HEAD  LAST
  PRINT  BUDGET  LAST
END period  116

BEGIN period  117
  SAVE  HEAD  LAST
  SAVE  BUDGET  LAST
  PRINT  HEAD  FIRST
  PRINT  HEAD  LAST
  PRINT  BUDGET  LAST
END period  117

BEGIN period  118
  SAVE  HEAD  LAST
  SAVE  BUDGET  LAST
  PRINT  HEAD  FIRST
  PRINT  HEAD  LAST
  PRINT  BUDGET  LAST
END period  118

BEGIN period  119
  SAVE  HEAD  LAST
  SAVE  BUDGET  LAST
  PRINT  HEAD  FIRST
  PRINT  HEAD  LAST
  PRINT  BUDGET  LAST
END period  119

BEGIN period  120
  SAVE  HEAD  LAST
  SAVE  BUDGET  LAST
  PRINT  HEAD  FIRST
  PRINT  HEAD  LAST
  PRINT  BUDGET  LAST
END period  120

BEGIN period  121
  SAVE  HEAD  LAST
  SAVE  BUDGET  LAST
  PRINT  HEAD  FIRST
  PRINT  HEAD  LAST
  PRINT  BUDGET  LAST
END period  121

BEGIN period  122
  SAVE  HEAD  LAST
  SAVE  BUDGET  LAST
  PRINT  HEAD  FIRST
  PRINT  HEAD  LAST
  PRINT  BUDGET  LAST
END period  122

BEGIN period  123
  SAVE  HEAD  LAST
  SAVE  BUDGET  LAST
  PRINT  HEAD  FIRST
  PRINT  HEAD  LAST
  PRINT  BUDGET  LAST
END period  123

BEGIN period  124
  SAVE  HEAD  LAST
  SAVE  BUDGET  LAST
  PRINT  HEAD  FIRST
  PRINT  HEAD  LAST
  PRINT  BUDGET  LAST
END period  124

BEGIN period  125
  SAVE  HEAD  LAST
  SAVE  BUDGET  LAST
  PRINT  HEAD  FIRST
  PRINT  HEAD  LAST
  PRINT  BUDGET  LAST
END period  125

BEGIN period  126
  SAVE  HEAD  LAST
  SAVE  BUDGET  LAST
  PRINT  HEAD  FIRST
  PRINT  HEAD  LAST
  PRINT  BUDGET  LAST
END period  126

BEGIN period  127
  SAVE  HEAD  LAST
  SAVE  BUDGET  LAST
  PRINT  HEAD  FIRST
  PRINT  HEAD  LAST
  PRINT  BUDGET  LAST
END period  127

BEGIN period  128
  SAVE  HEAD  LAST
  SAVE  BUDGET  LAST
  PRINT  HEAD  FIRST
  PRINT  HEAD  LAST
  PRINT  BUDGET  LAST
END period  128

BEGIN period  129
  SAVE  HEAD  LAST
  SAVE  BUDGET  LAST
  PRINT  HEAD  FIRST
  PRINT  HEAD  LAST
  PRINT  BUDGET  LAST
END period  129

BEGIN period  130
  SAVE  HEAD  LAST
  SAVE  BUDGET  LAST
  PRINT  HEAD  FIRST
  PRINT  HEAD  LAST
  PRINT  BUDGET  LAST
END period  130

BEGIN period  131
  SAVE  HEAD  LAST
  SAVE  BUDGET  LAST
  PRINT  HEAD  FIRST
  PRINT  HEAD  LAST
  PRINT  BUDGET  LAST
END period  131

BEGIN period  132
  SAVE  HEAD  LAST
  SAVE  BUDGET  LAST
  PRINT  HEAD  FIRST
  PRINT  HEAD  LAST
  PRINT  BUDGET  LAST
END period  132

BEGIN period  133
  SAVE  HEAD  LAST
  SAVE  BUDGET  LAST
  PRINT  HEAD  FIRST
  PRINT  HEAD  LAST
  PRINT  BUDGET  LAST
END period  133

BEGIN period  134
  SAVE  HEAD  LAST
  SAVE  BUDGET  LAST
  PRINT  HEAD  FIRST
  PRINT  HEAD  LAST
  PRINT  BUDGET  LAST
END period  134

BEGIN period  135
  SAVE  HEAD  LAST
  SAVE  BUDGET  LAST
  PRINT  HEAD  FIRST
  PRINT  HEAD  LAST
  PRINT  BUDGET  LAST
END period  135

BEGIN period  136
  SAVE  HEAD  LAST
  SAVE  BUDGET  LAST
  PRINT  HEAD  FIRST
  PRINT  HEAD  LAST
  PRINT  BUDGET  LAST
END period  136

BEGIN period  137
  SAVE  HEAD  LAST
  SAVE  BUDGET  LAST
  PRINT  HEAD  FIRST
  PRINT  HEAD  LAST
  PRINT  BUDGET  LAST
END period  137

BEGIN period  138
  SAVE  HEAD  LAST
  SAVE  BUDGET  LAST
  PRINT  HEAD  FIRST
  PRINT  HEAD  LAST
  PRINT  BUDGET  LAST
END period  138

BEGIN period  139
  SAVE  HEAD  LAST
  SAVE  BUDGET  LAST
  PRINT  HEAD  FIRST
  PRINT  HEAD  LAST
  PRINT  BUDGET  LAST
END period  139

BEGIN period  140
  SAVE  HEAD  LAST
  SAVE  BUDGET  LAST
  PRINT  HEAD  FIRST
  PRINT  HEAD  LAST
  PRINT  BUDGET  LAST
END period  140

BEGIN period  141
  SAVE  HEAD  LAST
  SAVE  BUDGET  LAST
  PRINT  HEAD  FIRST
  PRINT  HEAD  LAST
  PRINT  BUDGET  LAST
END period  141

BEGIN period  142
  SAVE  HEAD  LAST
  SAVE  BUDGET  LAST
  PRINT  HEAD  FIRST
  PRINT  HEAD  LAST
  PRINT  BUDGET  LAST
END period  142

BEGIN period  143
  SAVE  HEAD  LAST
  SAVE  BUDGET  LAST
  PRINT  HEAD  FIRST
  PRINT  HEAD  LAST
  PRINT  BUDGET  LAST
END period  143

BEGIN period  144
  SAVE  HEAD  LAST
  SAVE  BUDGET  LAST
  PRINT  HEAD  FIRST
  PRINT  HEAD  LAST
  PRINT  BUDGET  LAST
END period  144

BEGIN period  145
  SAVE  HEAD  LAST
  SAVE  BUDGET  LAST
  PRINT  HEAD  FIRST
  PRINT  HEAD  LAST
  PRINT  BUDGET  LAST
END period  145

BEGIN period  146
  SAVE  HEAD  LAST
  SAVE  BUDGET  LAST
  PRINT  HEAD  FIRST
  PRINT  HEAD  LAST
  PRINT  BUDGET  LAST
END period  146

BEGIN period  147
  SAVE  HEAD  LAST
  SAVE  BUDGET  LAST
  PRINT  HEAD  FIRST
  PRINT  HEAD  LAST
  PRINT  BUDGET  LAST
END period  147

BEGIN period  148
  SAVE  HEAD  LAST
  SAVE  BUDGET  LAST
  PRINT  HEAD  FIRST
  PRINT  HEAD  LAST
  PRINT  BUDGET  LAST
END period  148

BEGIN period  149
  SAVE  HEAD  LAST
  SAVE  BUDGET  LAST
  PRINT  HEAD  FIRST
  PRINT  HEAD  LAST
  PRINT  BUDGET  LAST
END period  149

BEGIN period  150
  SAVE  HEAD  LAST
  SAVE  BUDGET  LAST
  PRINT  HEAD  FIRST
  PRINT  HEAD  LAST
  PRINT  BUDGET  LAST
END period  150

BEGIN period  151
  SAVE  HEAD  LAST
  SAVE  BUDGET  LAST
  PRINT  HEAD  FIRST
  PRINT  HEAD  LAST
  PRINT  BUDGET  LAST
END period  151

BEGIN period  152
  SAVE  HEAD  LAST
  SAVE  BUDGET  LAST
  PRINT  HEAD  FIRST
  PRINT  HEAD  LAST
  PRINT  BUDGET  LAST
END period  152

BEGIN period  153
  SAVE  HEAD  LAST
  SAVE  BUDGET  LAST
  PRINT  HEAD  FIRST
  PRINT  HEAD  LAST
  PRINT  BUDGET  LAST
END period  153

BEGIN period  154
  SAVE  HEAD  LAST
  SAVE  BUDGET  LAST
  PRINT  HEAD  FIRST
  PRINT  HEAD  LAST
  PRINT  BUDGET  LAST
END period  154

BEGIN period  155
  SAVE  HEAD  LAST
  SAVE  BUDGET  LAST
  PRINT  HEAD  FIRST
  PRINT  HEAD  LAST
  PRINT  BUDGET  LAST
END period  155

BEGIN period  156
  SAVE  HEAD  LAST
  SAVE  BUDGET  LAST
  PRINT  HEAD  FIRST
  PRINT  HEAD  LAST
  PRINT  BUDGET  LAST
END period  156

BEGIN period  157
  SAVE  HEAD  LAST
  SAVE  BUDGET  LAST
  PRINT  HEAD  FIRST
  PRINT  HEAD  LAST
  PRINT  BUDGET  LAST
END period  157

BEGIN period  158
  SAVE  HEAD  LAST
  SAVE  BUDGET  LAST
  PRINT  HEAD  FIRST
  PRINT  HEAD  LAST
  PRINT  BUDGET  LAST
END period  158

BEGIN period  159
  SAVE  HEAD  LAST
  SAVE  BUDGET  LAST
  PRINT  HEAD  FIRST
  PRINT  HEAD  LAST
  PRINT  BUDGET  LAST
END period  159

BEGIN period  160
  SAVE  HEAD  LAST
  SAVE  BUDGET  LAST
  PRINT  HEAD  FIRST
  PRINT  HEAD  LAST
  PRINT  BUDGET  LAST
END period  160

BEGIN period  161
  SAVE  HEAD  LAST
  SAVE  BUDGET  LAST
  PRINT  HEAD  FIRST
  PRINT  HEAD  LAST
  PRINT  BUDGET  LAST
END period  161

BEGIN period  162
  SAVE  HEAD  LAST
  SAVE  BUDGET  LAST
  PRINT  HEAD  FIRST
  PRINT  HEAD  LAST
  PRINT  BUDGET  LAST
END period  162

BEGIN period  163
  SAVE  HEAD  LAST
  SAVE  BUDGET  LAST
  PRINT  HEAD  FIRST
  PRINT  HEAD  LAST
  PRINT  BUDGET  LAST
END period  163

BEGIN period  164
  SAVE  HEAD  LAST
  SAVE  BUDGET  LAST
  PRINT  HEAD  FIRST
  PRINT  HEAD  LAST
  PRINT  BUDGET  LAST
END period  164

BEGIN period  165
  SAVE  HEAD  LAST
  SAVE  BUDGET  LAST
  PRINT  HEAD  FIRST
  PRINT  HEAD  LAST
  PRINT  BUDGET  LAST
END period  165

BEGIN period  166
  SAVE  HEAD  LAST
  SAVE  BUDGET  LAST
  PRINT  HEAD  FIRST
  PRINT  HEAD  LAST
  PRINT  BUDGET  LAST
END period  166

BEGIN period  167
  SAVE  HEAD  LAST
  SAVE  BUDGET  LAST
  PRINT  HEAD  FIRST
  PRINT  HEAD  LAST
  PRINT  BUDGET  LAST
END period  167

BEGIN period  168
  SAVE  HEAD  LAST
  SAVE  BUDGET  LAST
  PRINT  HEAD  FIRST
  PRINT  HEAD  LAST
  PRINT  BUDGET  LAST
END period  168

BEGIN period  169
  SAVE  HEAD  LAST
  SAVE  BUDGET  LAST
  PRINT  HEAD  FIRST
  PRINT  HEAD  LAST
  PRINT  BUDGET  LAST
END period  169

BEGIN period  170
  SAVE  HEAD  LAST
  SAVE  BUDGET  LAST
  PRINT  HEAD  FIRST
  PRINT  HEAD  LAST
  PRINT  BUDGET  LAST
END period  170

BEGIN period  171
  SAVE  HEAD  LAST
  SAVE  BUDGET  LAST
  PRINT  HEAD  FIRST
  PRINT  HEAD  LAST
  PRINT  BUDGET  LAST
END period  171

BEGIN period  172
  SAVE  HEAD  LAST
  SAVE  BUDGET  LAST
  PRINT  HEAD  FIRST
  PRINT  HEAD  LAST
  PRINT  BUDGET  LAST
END period  172

BEGIN period  173
  SAVE  HEAD  LAST
  SAVE  BUDGET  LAST
  PRINT  HEAD  FIRST
  PRINT  HEAD  LAST
  PRINT  BUDGET  LAST
END period  173

BEGIN period  174
  SAVE  HEAD  LAST
  SAVE  BUDGET  LAST
  PRINT  HEAD  FIRST
  PRINT  HEAD  LAST
  PRINT  BUDGET  LAST
END period  174

BEGIN period  175
  SAVE  HEAD  LAST
  SAVE  BUDGET  LAST
  PRINT  HEAD  FIRST
  PRINT  HEAD  LAST
  PRINT  BUDGET  LAST
END period  175

BEGIN period  176
  SAVE  HEAD  LAST
  SAVE  BUDGET  LAST
  PRINT  HEAD  FIRST
  PRINT  HEAD  LAST
  PRINT  BUDGET  LAST
END period  176

BEGIN period  177
  SAVE  HEAD  LAST
  SAVE  BUDGET  LAST
  PRINT  HEAD  FIRST
  PRINT  HEAD  LAST
  PRINT  BUDGET  LAST
END period  177

BEGIN period  178
  SAVE  HEAD  LAST
  SAVE  BUDGET  LAST
  PRINT  HEAD  FIRST
  PRINT  HEAD  LAST
  PRINT  BUDGET  LAST
END period  178

BEGIN period  179
  SAVE  HEAD  LAST
  SAVE  BUDGET  LAST
  PRINT  HEAD  FIRST
  PRINT  HEAD  LAST
  PRINT  BUDGET  LAST
END period  179

BEGIN period  180
  SAVE  HEAD  LAST
  SAVE  BUDGET  LAST
  PRINT  HEAD  FIRST
  PRINT  HEAD  LAST
  PRINT  BUDGET  LAST
END period  180

