# File generated by Flopy version 3.3.6 on 04/13/2023 at 23:05:49.
BEGIN options
END options

BEGIN continuous  FILEOUT  springs_flowrate_obs.csv
  Comal  drn  1 274 536
  SanMar  drn  1 259 602
END continuous  FILEOUT  springs_flowrate_obs.csv

