# File generated by Flopy version 3.3.6 on 04/13/2023 at 23:02:33.
BEGIN options
  PRINT_OPTION  all
  COMPLEXITY  complex
END options

BEGIN nonlinear
  OUTER_DVCLOSE       5.00000000
  OUTER_MAXIMUM  500
  UNDER_RELAXATION  dbd
END nonlinear

BEGIN linear
  INNER_MAXIMUM  200
  INNER_DVCLOSE       0.10000000
  LINEAR_ACCELERATION  cg
  PRECONDITIONER_LEVELS  5
  PRECONDITIONER_DROP_TOLERANCE       0.01000000
  NUMBER_ORTHOGONALIZATIONS  2
END linear

