# File generated by Flopy version 3.3.6 on 04/13/2023 at 23:05:48.
BEGIN options
  BOUNDNAMES
  PRINT_INPUT
  PRINT_FLOWS
  SAVE_FLOWS
  OBS6  FILEIN  eaa_flow_model.drn.obs
END options

BEGIN dimensions
  MAXBOUND  8
END dimensions

BEGIN period  1
  1 180 128     838.40002441  1.50386000E+05  Leona
  1 51 19    1105.00000000  1.33871000E+06  sprg1
  1 274 536     607.00000000  5.97698000E+06  Comal
  1 284 420     662.00000000   50337.69921875  SanPed
  1 259 602     576.00000000  1.87260000E+06  SanMar
  1 173 131     835.00000000   84326.29687500  sprg2
  1 261 541     619.00000000  1.59570000E+07  Hueco
  1 284 430     670.00000000  5.98854000E+06  SanAnt
END period  1

BEGIN period  2
  1 180 128     838.40002441  1.50386000E+05  Leona
  1 51 19    1105.00000000  1.33871000E+06  sprg1
  1 274 536     607.00000000  5.97698000E+06  Comal
  1 284 420     662.00000000   50337.69921875  SanPed
  1 259 602     576.00000000  1.87260000E+06  SanMar
  1 173 131     835.00000000   84326.29687500  sprg2
  1 261 541     619.00000000  1.59570000E+07  Hueco
  1 284 430     670.00000000  5.98854000E+06  SanAnt
END period  2

BEGIN period  3
  1 180 128     838.40002441  1.50386000E+05  Leona
  1 51 19    1105.00000000  1.33871000E+06  sprg1
  1 274 536     607.00000000  5.97698000E+06  Comal
  1 284 420     662.00000000   50337.69921875  SanPed
  1 259 602     576.00000000  1.87260000E+06  SanMar
  1 173 131     835.00000000   84326.29687500  sprg2
  1 261 541     619.00000000  1.59570000E+07  Hueco
  1 284 430     670.00000000  5.98854000E+06  SanAnt
END period  3

BEGIN period  4
  1 180 128     838.40002441  1.50386000E+05  Leona
  1 51 19    1105.00000000  1.33871000E+06  sprg1
  1 274 536     607.00000000  5.97698000E+06  Comal
  1 284 420     662.00000000   50337.69921875  SanPed
  1 259 602     576.00000000  1.87260000E+06  SanMar
  1 173 131     835.00000000   84326.29687500  sprg2
  1 261 541     619.00000000  1.59570000E+07  Hueco
  1 284 430     670.00000000  5.98854000E+06  SanAnt
END period  4

BEGIN period  5
  1 180 128     838.40002441  1.50386000E+05  Leona
  1 51 19    1105.00000000  1.33871000E+06  sprg1
  1 274 536     607.00000000  5.97698000E+06  Comal
  1 284 420     662.00000000   50337.69921875  SanPed
  1 259 602     576.00000000  1.87260000E+06  SanMar
  1 173 131     835.00000000   84326.29687500  sprg2
  1 261 541     619.00000000  1.59570000E+07  Hueco
  1 284 430     670.00000000  5.98854000E+06  SanAnt
END period  5

BEGIN period  6
  1 180 128     838.40002441  1.50386000E+05  Leona
  1 51 19    1105.00000000  1.33871000E+06  sprg1
  1 274 536     607.00000000  5.97698000E+06  Comal
  1 284 420     662.00000000   50337.69921875  SanPed
  1 259 602     576.00000000  1.87260000E+06  SanMar
  1 173 131     835.00000000   84326.29687500  sprg2
  1 261 541     619.00000000  1.59570000E+07  Hueco
  1 284 430     670.00000000  5.98854000E+06  SanAnt
END period  6

BEGIN period  7
  1 180 128     838.40002441  1.50386000E+05  Leona
  1 51 19    1105.00000000  1.33871000E+06  sprg1
  1 274 536     607.00000000  5.97698000E+06  Comal
  1 284 420     662.00000000   50337.69921875  SanPed
  1 259 602     576.00000000  1.87260000E+06  SanMar
  1 173 131     835.00000000   84326.29687500  sprg2
  1 261 541     619.00000000  1.59570000E+07  Hueco
  1 284 430     670.00000000  5.98854000E+06  SanAnt
END period  7

BEGIN period  8
  1 180 128     838.40002441  1.50386000E+05  Leona
  1 51 19    1105.00000000  1.33871000E+06  sprg1
  1 274 536     607.00000000  5.97698000E+06  Comal
  1 284 420     662.00000000   50337.69921875  SanPed
  1 259 602     576.00000000  1.87260000E+06  SanMar
  1 173 131     835.00000000   84326.29687500  sprg2
  1 261 541     619.00000000  1.59570000E+07  Hueco
  1 284 430     670.00000000  5.98854000E+06  SanAnt
END period  8

BEGIN period  9
  1 180 128     838.40002441  1.50386000E+05  Leona
  1 51 19    1105.00000000  1.33871000E+06  sprg1
  1 274 536     607.00000000  5.97698000E+06  Comal
  1 284 420     662.00000000   50337.69921875  SanPed
  1 259 602     576.00000000  1.87260000E+06  SanMar
  1 173 131     835.00000000   84326.29687500  sprg2
  1 261 541     619.00000000  1.59570000E+07  Hueco
  1 284 430     670.00000000  5.98854000E+06  SanAnt
END period  9

BEGIN period  10
  1 180 128     838.40002441  1.50386000E+05  Leona
  1 51 19    1105.00000000  1.33871000E+06  sprg1
  1 274 536     607.00000000  5.97698000E+06  Comal
  1 284 420     662.00000000   50337.69921875  SanPed
  1 259 602     576.00000000  1.87260000E+06  SanMar
  1 173 131     835.00000000   84326.29687500  sprg2
  1 261 541     619.00000000  1.59570000E+07  Hueco
  1 284 430     670.00000000  5.98854000E+06  SanAnt
END period  10

BEGIN period  11
  1 180 128     838.40002441  1.50386000E+05  Leona
  1 51 19    1105.00000000  1.33871000E+06  sprg1
  1 274 536     607.00000000  5.97698000E+06  Comal
  1 284 420     662.00000000   50337.69921875  SanPed
  1 259 602     576.00000000  1.87260000E+06  SanMar
  1 173 131     835.00000000   84326.29687500  sprg2
  1 261 541     619.00000000  1.59570000E+07  Hueco
  1 284 430     670.00000000  5.98854000E+06  SanAnt
END period  11

BEGIN period  12
  1 180 128     838.40002441  1.50386000E+05  Leona
  1 51 19    1105.00000000  1.33871000E+06  sprg1
  1 274 536     607.00000000  5.97698000E+06  Comal
  1 284 420     662.00000000   50337.69921875  SanPed
  1 259 602     576.00000000  1.87260000E+06  SanMar
  1 173 131     835.00000000   84326.29687500  sprg2
  1 261 541     619.00000000  1.59570000E+07  Hueco
  1 284 430     670.00000000  5.98854000E+06  SanAnt
END period  12

BEGIN period  13
  1 180 128     838.40002441  1.50386000E+05  Leona
  1 51 19    1105.00000000  1.33871000E+06  sprg1
  1 274 536     607.00000000  5.97698000E+06  Comal
  1 284 420     662.00000000   50337.69921875  SanPed
  1 259 602     576.00000000  1.87260000E+06  SanMar
  1 173 131     835.00000000   84326.29687500  sprg2
  1 261 541     619.00000000  1.59570000E+07  Hueco
  1 284 430     670.00000000  5.98854000E+06  SanAnt
END period  13

BEGIN period  14
  1 180 128     838.40002441  1.50386000E+05  Leona
  1 51 19    1105.00000000  1.33871000E+06  sprg1
  1 274 536     607.00000000  5.97698000E+06  Comal
  1 284 420     662.00000000   50337.69921875  SanPed
  1 259 602     576.00000000  1.87260000E+06  SanMar
  1 173 131     835.00000000   84326.29687500  sprg2
  1 261 541     619.00000000  1.59570000E+07  Hueco
  1 284 430     670.00000000  5.98854000E+06  SanAnt
END period  14

BEGIN period  15
  1 180 128     838.40002441  1.50386000E+05  Leona
  1 51 19    1105.00000000  1.33871000E+06  sprg1
  1 274 536     607.00000000  5.97698000E+06  Comal
  1 284 420     662.00000000   50337.69921875  SanPed
  1 259 602     576.00000000  1.87260000E+06  SanMar
  1 173 131     835.00000000   84326.29687500  sprg2
  1 261 541     619.00000000  1.59570000E+07  Hueco
  1 284 430     670.00000000  5.98854000E+06  SanAnt
END period  15

BEGIN period  16
  1 180 128     838.40002441  1.50386000E+05  Leona
  1 51 19    1105.00000000  1.33871000E+06  sprg1
  1 274 536     607.00000000  5.97698000E+06  Comal
  1 284 420     662.00000000   50337.69921875  SanPed
  1 259 602     576.00000000  1.87260000E+06  SanMar
  1 173 131     835.00000000   84326.29687500  sprg2
  1 261 541     619.00000000  1.59570000E+07  Hueco
  1 284 430     670.00000000  5.98854000E+06  SanAnt
END period  16

BEGIN period  17
  1 180 128     838.40002441  1.50386000E+05  Leona
  1 51 19    1105.00000000  1.33871000E+06  sprg1
  1 274 536     607.00000000  5.97698000E+06  Comal
  1 284 420     662.00000000   50337.69921875  SanPed
  1 259 602     576.00000000  1.87260000E+06  SanMar
  1 173 131     835.00000000   84326.29687500  sprg2
  1 261 541     619.00000000  1.59570000E+07  Hueco
  1 284 430     670.00000000  5.98854000E+06  SanAnt
END period  17

BEGIN period  18
  1 180 128     838.40002441  1.50386000E+05  Leona
  1 51 19    1105.00000000  1.33871000E+06  sprg1
  1 274 536     607.00000000  5.97698000E+06  Comal
  1 284 420     662.00000000   50337.69921875  SanPed
  1 259 602     576.00000000  1.87260000E+06  SanMar
  1 173 131     835.00000000   84326.29687500  sprg2
  1 261 541     619.00000000  1.59570000E+07  Hueco
  1 284 430     670.00000000  5.98854000E+06  SanAnt
END period  18

BEGIN period  19
  1 180 128     838.40002441  1.50386000E+05  Leona
  1 51 19    1105.00000000  1.33871000E+06  sprg1
  1 274 536     607.00000000  5.97698000E+06  Comal
  1 284 420     662.00000000   50337.69921875  SanPed
  1 259 602     576.00000000  1.87260000E+06  SanMar
  1 173 131     835.00000000   84326.29687500  sprg2
  1 261 541     619.00000000  1.59570000E+07  Hueco
  1 284 430     670.00000000  5.98854000E+06  SanAnt
END period  19

BEGIN period  20
  1 180 128     838.40002441  1.50386000E+05  Leona
  1 51 19    1105.00000000  1.33871000E+06  sprg1
  1 274 536     607.00000000  5.97698000E+06  Comal
  1 284 420     662.00000000   50337.69921875  SanPed
  1 259 602     576.00000000  1.87260000E+06  SanMar
  1 173 131     835.00000000   84326.29687500  sprg2
  1 261 541     619.00000000  1.59570000E+07  Hueco
  1 284 430     670.00000000  5.98854000E+06  SanAnt
END period  20

BEGIN period  21
  1 180 128     838.40002441  1.50386000E+05  Leona
  1 51 19    1105.00000000  1.33871000E+06  sprg1
  1 274 536     607.00000000  5.97698000E+06  Comal
  1 284 420     662.00000000   50337.69921875  SanPed
  1 259 602     576.00000000  1.87260000E+06  SanMar
  1 173 131     835.00000000   84326.29687500  sprg2
  1 261 541     619.00000000  1.59570000E+07  Hueco
  1 284 430     670.00000000  5.98854000E+06  SanAnt
END period  21

BEGIN period  22
  1 180 128     838.40002441  1.50386000E+05  Leona
  1 51 19    1105.00000000  1.33871000E+06  sprg1
  1 274 536     607.00000000  5.97698000E+06  Comal
  1 284 420     662.00000000   50337.69921875  SanPed
  1 259 602     576.00000000  1.87260000E+06  SanMar
  1 173 131     835.00000000   84326.29687500  sprg2
  1 261 541     619.00000000  1.59570000E+07  Hueco
  1 284 430     670.00000000  5.98854000E+06  SanAnt
END period  22

BEGIN period  23
  1 180 128     838.40002441  1.50386000E+05  Leona
  1 51 19    1105.00000000  1.33871000E+06  sprg1
  1 274 536     607.00000000  5.97698000E+06  Comal
  1 284 420     662.00000000   50337.69921875  SanPed
  1 259 602     576.00000000  1.87260000E+06  SanMar
  1 173 131     835.00000000   84326.29687500  sprg2
  1 261 541     619.00000000  1.59570000E+07  Hueco
  1 284 430     670.00000000  5.98854000E+06  SanAnt
END period  23

BEGIN period  24
  1 180 128     838.40002441  1.50386000E+05  Leona
  1 51 19    1105.00000000  1.33871000E+06  sprg1
  1 274 536     607.00000000  5.97698000E+06  Comal
  1 284 420     662.00000000   50337.69921875  SanPed
  1 259 602     576.00000000  1.87260000E+06  SanMar
  1 173 131     835.00000000   84326.29687500  sprg2
  1 261 541     619.00000000  1.59570000E+07  Hueco
  1 284 430     670.00000000  5.98854000E+06  SanAnt
END period  24

BEGIN period  25
  1 180 128     838.40002441  1.50386000E+05  Leona
  1 51 19    1105.00000000  1.33871000E+06  sprg1
  1 274 536     607.00000000  5.97698000E+06  Comal
  1 284 420     662.00000000   50337.69921875  SanPed
  1 259 602     576.00000000  1.87260000E+06  SanMar
  1 173 131     835.00000000   84326.29687500  sprg2
  1 261 541     619.00000000  1.59570000E+07  Hueco
  1 284 430     670.00000000  5.98854000E+06  SanAnt
END period  25

BEGIN period  26
  1 180 128     838.40002441  1.50386000E+05  Leona
  1 51 19    1105.00000000  1.33871000E+06  sprg1
  1 274 536     607.00000000  5.97698000E+06  Comal
  1 284 420     662.00000000   50337.69921875  SanPed
  1 259 602     576.00000000  1.87260000E+06  SanMar
  1 173 131     835.00000000   84326.29687500  sprg2
  1 261 541     619.00000000  1.59570000E+07  Hueco
  1 284 430     670.00000000  5.98854000E+06  SanAnt
END period  26

BEGIN period  27
  1 180 128     838.40002441  1.50386000E+05  Leona
  1 51 19    1105.00000000  1.33871000E+06  sprg1
  1 274 536     607.00000000  5.97698000E+06  Comal
  1 284 420     662.00000000   50337.69921875  SanPed
  1 259 602     576.00000000  1.87260000E+06  SanMar
  1 173 131     835.00000000   84326.29687500  sprg2
  1 261 541     619.00000000  1.59570000E+07  Hueco
  1 284 430     670.00000000  5.98854000E+06  SanAnt
END period  27

BEGIN period  28
  1 180 128     838.40002441  1.50386000E+05  Leona
  1 51 19    1105.00000000  1.33871000E+06  sprg1
  1 274 536     607.00000000  5.97698000E+06  Comal
  1 284 420     662.00000000   50337.69921875  SanPed
  1 259 602     576.00000000  1.87260000E+06  SanMar
  1 173 131     835.00000000   84326.29687500  sprg2
  1 261 541     619.00000000  1.59570000E+07  Hueco
  1 284 430     670.00000000  5.98854000E+06  SanAnt
END period  28

BEGIN period  29
  1 180 128     838.40002441  1.50386000E+05  Leona
  1 51 19    1105.00000000  1.33871000E+06  sprg1
  1 274 536     607.00000000  5.97698000E+06  Comal
  1 284 420     662.00000000   50337.69921875  SanPed
  1 259 602     576.00000000  1.87260000E+06  SanMar
  1 173 131     835.00000000   84326.29687500  sprg2
  1 261 541     619.00000000  1.59570000E+07  Hueco
  1 284 430     670.00000000  5.98854000E+06  SanAnt
END period  29

BEGIN period  30
  1 180 128     838.40002441  1.50386000E+05  Leona
  1 51 19    1105.00000000  1.33871000E+06  sprg1
  1 274 536     607.00000000  5.97698000E+06  Comal
  1 284 420     662.00000000   50337.69921875  SanPed
  1 259 602     576.00000000  1.87260000E+06  SanMar
  1 173 131     835.00000000   84326.29687500  sprg2
  1 261 541     619.00000000  1.59570000E+07  Hueco
  1 284 430     670.00000000  5.98854000E+06  SanAnt
END period  30

BEGIN period  31
  1 180 128     838.40002441  1.50386000E+05  Leona
  1 51 19    1105.00000000  1.33871000E+06  sprg1
  1 274 536     607.00000000  5.97698000E+06  Comal
  1 284 420     662.00000000   50337.69921875  SanPed
  1 259 602     576.00000000  1.87260000E+06  SanMar
  1 173 131     835.00000000   84326.29687500  sprg2
  1 261 541     619.00000000  1.59570000E+07  Hueco
  1 284 430     670.00000000  5.98854000E+06  SanAnt
END period  31

BEGIN period  32
  1 180 128     838.40002441  1.50386000E+05  Leona
  1 51 19    1105.00000000  1.33871000E+06  sprg1
  1 274 536     607.00000000  5.97698000E+06  Comal
  1 284 420     662.00000000   50337.69921875  SanPed
  1 259 602     576.00000000  1.87260000E+06  SanMar
  1 173 131     835.00000000   84326.29687500  sprg2
  1 261 541     619.00000000  1.59570000E+07  Hueco
  1 284 430     670.00000000  5.98854000E+06  SanAnt
END period  32

BEGIN period  33
  1 180 128     838.40002441  1.50386000E+05  Leona
  1 51 19    1105.00000000  1.33871000E+06  sprg1
  1 274 536     607.00000000  5.97698000E+06  Comal
  1 284 420     662.00000000   50337.69921875  SanPed
  1 259 602     576.00000000  1.87260000E+06  SanMar
  1 173 131     835.00000000   84326.29687500  sprg2
  1 261 541     619.00000000  1.59570000E+07  Hueco
  1 284 430     670.00000000  5.98854000E+06  SanAnt
END period  33

BEGIN period  34
  1 180 128     838.40002441  1.50386000E+05  Leona
  1 51 19    1105.00000000  1.33871000E+06  sprg1
  1 274 536     607.00000000  5.97698000E+06  Comal
  1 284 420     662.00000000   50337.69921875  SanPed
  1 259 602     576.00000000  1.87260000E+06  SanMar
  1 173 131     835.00000000   84326.29687500  sprg2
  1 261 541     619.00000000  1.59570000E+07  Hueco
  1 284 430     670.00000000  5.98854000E+06  SanAnt
END period  34

BEGIN period  35
  1 180 128     838.40002441  1.50386000E+05  Leona
  1 51 19    1105.00000000  1.33871000E+06  sprg1
  1 274 536     607.00000000  5.97698000E+06  Comal
  1 284 420     662.00000000   50337.69921875  SanPed
  1 259 602     576.00000000  1.87260000E+06  SanMar
  1 173 131     835.00000000   84326.29687500  sprg2
  1 261 541     619.00000000  1.59570000E+07  Hueco
  1 284 430     670.00000000  5.98854000E+06  SanAnt
END period  35

BEGIN period  36
  1 180 128     838.40002441  1.50386000E+05  Leona
  1 51 19    1105.00000000  1.33871000E+06  sprg1
  1 274 536     607.00000000  5.97698000E+06  Comal
  1 284 420     662.00000000   50337.69921875  SanPed
  1 259 602     576.00000000  1.87260000E+06  SanMar
  1 173 131     835.00000000   84326.29687500  sprg2
  1 261 541     619.00000000  1.59570000E+07  Hueco
  1 284 430     670.00000000  5.98854000E+06  SanAnt
END period  36

BEGIN period  37
  1 180 128     838.40002441  1.50386000E+05  Leona
  1 51 19    1105.00000000  1.33871000E+06  sprg1
  1 274 536     607.00000000  5.97698000E+06  Comal
  1 284 420     662.00000000   50337.69921875  SanPed
  1 259 602     576.00000000  1.87260000E+06  SanMar
  1 173 131     835.00000000   84326.29687500  sprg2
  1 261 541     619.00000000  1.59570000E+07  Hueco
  1 284 430     670.00000000  5.98854000E+06  SanAnt
END period  37

BEGIN period  38
  1 180 128     838.40002441  1.50386000E+05  Leona
  1 51 19    1105.00000000  1.33871000E+06  sprg1
  1 274 536     607.00000000  5.97698000E+06  Comal
  1 284 420     662.00000000   50337.69921875  SanPed
  1 259 602     576.00000000  1.87260000E+06  SanMar
  1 173 131     835.00000000   84326.29687500  sprg2
  1 261 541     619.00000000  1.59570000E+07  Hueco
  1 284 430     670.00000000  5.98854000E+06  SanAnt
END period  38

BEGIN period  39
  1 180 128     838.40002441  1.50386000E+05  Leona
  1 51 19    1105.00000000  1.33871000E+06  sprg1
  1 274 536     607.00000000  5.97698000E+06  Comal
  1 284 420     662.00000000   50337.69921875  SanPed
  1 259 602     576.00000000  1.87260000E+06  SanMar
  1 173 131     835.00000000   84326.29687500  sprg2
  1 261 541     619.00000000  1.59570000E+07  Hueco
  1 284 430     670.00000000  5.98854000E+06  SanAnt
END period  39

BEGIN period  40
  1 180 128     838.40002441  1.50386000E+05  Leona
  1 51 19    1105.00000000  1.33871000E+06  sprg1
  1 274 536     607.00000000  5.97698000E+06  Comal
  1 284 420     662.00000000   50337.69921875  SanPed
  1 259 602     576.00000000  1.87260000E+06  SanMar
  1 173 131     835.00000000   84326.29687500  sprg2
  1 261 541     619.00000000  1.59570000E+07  Hueco
  1 284 430     670.00000000  5.98854000E+06  SanAnt
END period  40

BEGIN period  41
  1 180 128     838.40002441  1.50386000E+05  Leona
  1 51 19    1105.00000000  1.33871000E+06  sprg1
  1 274 536     607.00000000  5.97698000E+06  Comal
  1 284 420     662.00000000   50337.69921875  SanPed
  1 259 602     576.00000000  1.87260000E+06  SanMar
  1 173 131     835.00000000   84326.29687500  sprg2
  1 261 541     619.00000000  1.59570000E+07  Hueco
  1 284 430     670.00000000  5.98854000E+06  SanAnt
END period  41

BEGIN period  42
  1 180 128     838.40002441  1.50386000E+05  Leona
  1 51 19    1105.00000000  1.33871000E+06  sprg1
  1 274 536     607.00000000  5.97698000E+06  Comal
  1 284 420     662.00000000   50337.69921875  SanPed
  1 259 602     576.00000000  1.87260000E+06  SanMar
  1 173 131     835.00000000   84326.29687500  sprg2
  1 261 541     619.00000000  1.59570000E+07  Hueco
  1 284 430     670.00000000  5.98854000E+06  SanAnt
END period  42

BEGIN period  43
  1 180 128     838.40002441  1.50386000E+05  Leona
  1 51 19    1105.00000000  1.33871000E+06  sprg1
  1 274 536     607.00000000  5.97698000E+06  Comal
  1 284 420     662.00000000   50337.69921875  SanPed
  1 259 602     576.00000000  1.87260000E+06  SanMar
  1 173 131     835.00000000   84326.29687500  sprg2
  1 261 541     619.00000000  1.59570000E+07  Hueco
  1 284 430     670.00000000  5.98854000E+06  SanAnt
END period  43

BEGIN period  44
  1 180 128     838.40002441  1.50386000E+05  Leona
  1 51 19    1105.00000000  1.33871000E+06  sprg1
  1 274 536     607.00000000  5.97698000E+06  Comal
  1 284 420     662.00000000   50337.69921875  SanPed
  1 259 602     576.00000000  1.87260000E+06  SanMar
  1 173 131     835.00000000   84326.29687500  sprg2
  1 261 541     619.00000000  1.59570000E+07  Hueco
  1 284 430     670.00000000  5.98854000E+06  SanAnt
END period  44

BEGIN period  45
  1 180 128     838.40002441  1.50386000E+05  Leona
  1 51 19    1105.00000000  1.33871000E+06  sprg1
  1 274 536     607.00000000  5.97698000E+06  Comal
  1 284 420     662.00000000   50337.69921875  SanPed
  1 259 602     576.00000000  1.87260000E+06  SanMar
  1 173 131     835.00000000   84326.29687500  sprg2
  1 261 541     619.00000000  1.59570000E+07  Hueco
  1 284 430     670.00000000  5.98854000E+06  SanAnt
END period  45

BEGIN period  46
  1 180 128     838.40002441  1.50386000E+05  Leona
  1 51 19    1105.00000000  1.33871000E+06  sprg1
  1 274 536     607.00000000  5.97698000E+06  Comal
  1 284 420     662.00000000   50337.69921875  SanPed
  1 259 602     576.00000000  1.87260000E+06  SanMar
  1 173 131     835.00000000   84326.29687500  sprg2
  1 261 541     619.00000000  1.59570000E+07  Hueco
  1 284 430     670.00000000  5.98854000E+06  SanAnt
END period  46

BEGIN period  47
  1 180 128     838.40002441  1.50386000E+05  Leona
  1 51 19    1105.00000000  1.33871000E+06  sprg1
  1 274 536     607.00000000  5.97698000E+06  Comal
  1 284 420     662.00000000   50337.69921875  SanPed
  1 259 602     576.00000000  1.87260000E+06  SanMar
  1 173 131     835.00000000   84326.29687500  sprg2
  1 261 541     619.00000000  1.59570000E+07  Hueco
  1 284 430     670.00000000  5.98854000E+06  SanAnt
END period  47

BEGIN period  48
  1 180 128     838.40002441  1.50386000E+05  Leona
  1 51 19    1105.00000000  1.33871000E+06  sprg1
  1 274 536     607.00000000  5.97698000E+06  Comal
  1 284 420     662.00000000   50337.69921875  SanPed
  1 259 602     576.00000000  1.87260000E+06  SanMar
  1 173 131     835.00000000   84326.29687500  sprg2
  1 261 541     619.00000000  1.59570000E+07  Hueco
  1 284 430     670.00000000  5.98854000E+06  SanAnt
END period  48

BEGIN period  49
  1 180 128     838.40002441  1.50386000E+05  Leona
  1 51 19    1105.00000000  1.33871000E+06  sprg1
  1 274 536     607.00000000  5.97698000E+06  Comal
  1 284 420     662.00000000   50337.69921875  SanPed
  1 259 602     576.00000000  1.87260000E+06  SanMar
  1 173 131     835.00000000   84326.29687500  sprg2
  1 261 541     619.00000000  1.59570000E+07  Hueco
  1 284 430     670.00000000  5.98854000E+06  SanAnt
END period  49

BEGIN period  50
  1 180 128     838.40002441  1.50386000E+05  Leona
  1 51 19    1105.00000000  1.33871000E+06  sprg1
  1 274 536     607.00000000  5.97698000E+06  Comal
  1 284 420     662.00000000   50337.69921875  SanPed
  1 259 602     576.00000000  1.87260000E+06  SanMar
  1 173 131     835.00000000   84326.29687500  sprg2
  1 261 541     619.00000000  1.59570000E+07  Hueco
  1 284 430     670.00000000  5.98854000E+06  SanAnt
END period  50

BEGIN period  51
  1 180 128     838.40002441  1.50386000E+05  Leona
  1 51 19    1105.00000000  1.33871000E+06  sprg1
  1 274 536     607.00000000  5.97698000E+06  Comal
  1 284 420     662.00000000   50337.69921875  SanPed
  1 259 602     576.00000000  1.87260000E+06  SanMar
  1 173 131     835.00000000   84326.29687500  sprg2
  1 261 541     619.00000000  1.59570000E+07  Hueco
  1 284 430     670.00000000  5.98854000E+06  SanAnt
END period  51

BEGIN period  52
  1 180 128     838.40002441  1.50386000E+05  Leona
  1 51 19    1105.00000000  1.33871000E+06  sprg1
  1 274 536     607.00000000  5.97698000E+06  Comal
  1 284 420     662.00000000   50337.69921875  SanPed
  1 259 602     576.00000000  1.87260000E+06  SanMar
  1 173 131     835.00000000   84326.29687500  sprg2
  1 261 541     619.00000000  1.59570000E+07  Hueco
  1 284 430     670.00000000  5.98854000E+06  SanAnt
END period  52

BEGIN period  53
  1 180 128     838.40002441  1.50386000E+05  Leona
  1 51 19    1105.00000000  1.33871000E+06  sprg1
  1 274 536     607.00000000  5.97698000E+06  Comal
  1 284 420     662.00000000   50337.69921875  SanPed
  1 259 602     576.00000000  1.87260000E+06  SanMar
  1 173 131     835.00000000   84326.29687500  sprg2
  1 261 541     619.00000000  1.59570000E+07  Hueco
  1 284 430     670.00000000  5.98854000E+06  SanAnt
END period  53

BEGIN period  54
  1 180 128     838.40002441  1.50386000E+05  Leona
  1 51 19    1105.00000000  1.33871000E+06  sprg1
  1 274 536     607.00000000  5.97698000E+06  Comal
  1 284 420     662.00000000   50337.69921875  SanPed
  1 259 602     576.00000000  1.87260000E+06  SanMar
  1 173 131     835.00000000   84326.29687500  sprg2
  1 261 541     619.00000000  1.59570000E+07  Hueco
  1 284 430     670.00000000  5.98854000E+06  SanAnt
END period  54

BEGIN period  55
  1 180 128     838.40002441  1.50386000E+05  Leona
  1 51 19    1105.00000000  1.33871000E+06  sprg1
  1 274 536     607.00000000  5.97698000E+06  Comal
  1 284 420     662.00000000   50337.69921875  SanPed
  1 259 602     576.00000000  1.87260000E+06  SanMar
  1 173 131     835.00000000   84326.29687500  sprg2
  1 261 541     619.00000000  1.59570000E+07  Hueco
  1 284 430     670.00000000  5.98854000E+06  SanAnt
END period  55

BEGIN period  56
  1 180 128     838.40002441  1.50386000E+05  Leona
  1 51 19    1105.00000000  1.33871000E+06  sprg1
  1 274 536     607.00000000  5.97698000E+06  Comal
  1 284 420     662.00000000   50337.69921875  SanPed
  1 259 602     576.00000000  1.87260000E+06  SanMar
  1 173 131     835.00000000   84326.29687500  sprg2
  1 261 541     619.00000000  1.59570000E+07  Hueco
  1 284 430     670.00000000  5.98854000E+06  SanAnt
END period  56

BEGIN period  57
  1 180 128     838.40002441  1.50386000E+05  Leona
  1 51 19    1105.00000000  1.33871000E+06  sprg1
  1 274 536     607.00000000  5.97698000E+06  Comal
  1 284 420     662.00000000   50337.69921875  SanPed
  1 259 602     576.00000000  1.87260000E+06  SanMar
  1 173 131     835.00000000   84326.29687500  sprg2
  1 261 541     619.00000000  1.59570000E+07  Hueco
  1 284 430     670.00000000  5.98854000E+06  SanAnt
END period  57

BEGIN period  58
  1 180 128     838.40002441  1.50386000E+05  Leona
  1 51 19    1105.00000000  1.33871000E+06  sprg1
  1 274 536     607.00000000  5.97698000E+06  Comal
  1 284 420     662.00000000   50337.69921875  SanPed
  1 259 602     576.00000000  1.87260000E+06  SanMar
  1 173 131     835.00000000   84326.29687500  sprg2
  1 261 541     619.00000000  1.59570000E+07  Hueco
  1 284 430     670.00000000  5.98854000E+06  SanAnt
END period  58

BEGIN period  59
  1 180 128     838.40002441  1.50386000E+05  Leona
  1 51 19    1105.00000000  1.33871000E+06  sprg1
  1 274 536     607.00000000  5.97698000E+06  Comal
  1 284 420     662.00000000   50337.69921875  SanPed
  1 259 602     576.00000000  1.87260000E+06  SanMar
  1 173 131     835.00000000   84326.29687500  sprg2
  1 261 541     619.00000000  1.59570000E+07  Hueco
  1 284 430     670.00000000  5.98854000E+06  SanAnt
END period  59

BEGIN period  60
  1 180 128     838.40002441  1.50386000E+05  Leona
  1 51 19    1105.00000000  1.33871000E+06  sprg1
  1 274 536     607.00000000  5.97698000E+06  Comal
  1 284 420     662.00000000   50337.69921875  SanPed
  1 259 602     576.00000000  1.87260000E+06  SanMar
  1 173 131     835.00000000   84326.29687500  sprg2
  1 261 541     619.00000000  1.59570000E+07  Hueco
  1 284 430     670.00000000  5.98854000E+06  SanAnt
END period  60

BEGIN period  61
  1 180 128     838.40002441  1.50386000E+05  Leona
  1 51 19    1105.00000000  1.33871000E+06  sprg1
  1 274 536     607.00000000  5.97698000E+06  Comal
  1 284 420     662.00000000   50337.69921875  SanPed
  1 259 602     576.00000000  1.87260000E+06  SanMar
  1 173 131     835.00000000   84326.29687500  sprg2
  1 261 541     619.00000000  1.59570000E+07  Hueco
  1 284 430     670.00000000  5.98854000E+06  SanAnt
END period  61

BEGIN period  62
  1 180 128     838.40002441  1.50386000E+05  Leona
  1 51 19    1105.00000000  1.33871000E+06  sprg1
  1 274 536     607.00000000  5.97698000E+06  Comal
  1 284 420     662.00000000   50337.69921875  SanPed
  1 259 602     576.00000000  1.87260000E+06  SanMar
  1 173 131     835.00000000   84326.29687500  sprg2
  1 261 541     619.00000000  1.59570000E+07  Hueco
  1 284 430     670.00000000  5.98854000E+06  SanAnt
END period  62

BEGIN period  63
  1 180 128     838.40002441  1.50386000E+05  Leona
  1 51 19    1105.00000000  1.33871000E+06  sprg1
  1 274 536     607.00000000  5.97698000E+06  Comal
  1 284 420     662.00000000   50337.69921875  SanPed
  1 259 602     576.00000000  1.87260000E+06  SanMar
  1 173 131     835.00000000   84326.29687500  sprg2
  1 261 541     619.00000000  1.59570000E+07  Hueco
  1 284 430     670.00000000  5.98854000E+06  SanAnt
END period  63

BEGIN period  64
  1 180 128     838.40002441  1.50386000E+05  Leona
  1 51 19    1105.00000000  1.33871000E+06  sprg1
  1 274 536     607.00000000  5.97698000E+06  Comal
  1 284 420     662.00000000   50337.69921875  SanPed
  1 259 602     576.00000000  1.87260000E+06  SanMar
  1 173 131     835.00000000   84326.29687500  sprg2
  1 261 541     619.00000000  1.59570000E+07  Hueco
  1 284 430     670.00000000  5.98854000E+06  SanAnt
END period  64

BEGIN period  65
  1 180 128     838.40002441  1.50386000E+05  Leona
  1 51 19    1105.00000000  1.33871000E+06  sprg1
  1 274 536     607.00000000  5.97698000E+06  Comal
  1 284 420     662.00000000   50337.69921875  SanPed
  1 259 602     576.00000000  1.87260000E+06  SanMar
  1 173 131     835.00000000   84326.29687500  sprg2
  1 261 541     619.00000000  1.59570000E+07  Hueco
  1 284 430     670.00000000  5.98854000E+06  SanAnt
END period  65

BEGIN period  66
  1 180 128     838.40002441  1.50386000E+05  Leona
  1 51 19    1105.00000000  1.33871000E+06  sprg1
  1 274 536     607.00000000  5.97698000E+06  Comal
  1 284 420     662.00000000   50337.69921875  SanPed
  1 259 602     576.00000000  1.87260000E+06  SanMar
  1 173 131     835.00000000   84326.29687500  sprg2
  1 261 541     619.00000000  1.59570000E+07  Hueco