# File generated by Flopy version 3.3.6 on 04/13/2023 at 23:05:48.
BEGIN options
  PRINT_INPUT
END options

BEGIN dimensions
  MAXHFB  3377
END dimensions

BEGIN period  1
  1 216 321  1 217 321       6.44524002
  1 216 319  1 217 319  2.07553996E-09
  1 215 309  1 216 309  1.30488997E-09
  1 216 315  1 217 315  5.74093995E-10
  1 216 315  1 216 314  5.74093995E-10
  1 216 316  1 217 316  5.48797008E-10
  1 215 307  1 216 307  5.24158006E-09
  1 215 307  1 215 306  5.24158006E-09
  1 216 318  1 217 318  6.73777978E-10
  1 216 317  1 217 317  1.92648994E-10
  1 215 325  1 216 325  2.95997005E-09
  1 215 324  1 216 324  2.20937002E-09
  1 215 314  1 216 314  9.69729963E-10
  1 215 313  1 216 313  1.60293001E-09
  1 214 306  1 215 306  3.73920006E-09
  1 215 308  1 216 308  1.97133998E-09
  1 214 305  1 215 305  4.56827021E-09
  1 215 312  1 216 312  3.54635987E-10
  1 215 326  1 216 326  6.19918006E-11
  1 215 327  1 216 327  2.13955006E-10
  1 215 328  1 216 328  1.22982000E-10
  1 215 310  1 216 310  1.53346003E-10
  1 216 323  1 217 323  1.50012998E-08
  1 216 323  1 216 324  1.50012998E-08
  1 215 311  1 216 311  8.75793993E-10
  1 214 300  1 215 300  8.53690985E-09
  1 214 300  1 214 299  8.53690985E-09
  1 215 329  1 216 329  7.45176976E-10
  1 214 301  1 215 301  4.87759000E-11
  1 213 299  1 214 299  8.64270966E-09
  1 216 322  1 217 322  1.31839994E-09
  1 268 549  1 269 549       0.00263741
  1 268 549  1 269 549       0.00263741
  1 268 549  1 269 549       0.00263741
  1 269 548  1 269 549       0.01349030
  1 213 298  1 214 298  1.69707004E-09
  1 226 383  1 226 382  8.58254023E-11
  1 225 382  1 226 382       0.35308000
  1 213 297  1 214 297  3.78395981E-09
  1 216 320  1 217 320  9.26425991E-10
  1 277 384  1 278 384  1.03480002E-09
  1 278 382  1 279 382  1.98708006E-09
  1 278 382  1 278 383  1.98708006E-09
  1 277 383  1 278 383  2.28667002E-10
  1 225 381  1 226 381  3.03609005E-09
  1 214 302  1 215 302  9.22120957E-09
  1 278 357  1 279 357  3.99901978E-09
  1 278 358  1 279 358  6.58888000E-10
  1 278 355  1 279 355  1.71880998E-09
  1 278 356  1 279 356  2.15953005E-10
  1 278 359  1 279 359  2.64527000E-09
  1 278 381  1 279 381  2.49125010E-09
  1 214 304  1 215 304  3.12745008E-09
  1 278 377  1 279 377  1.05214004E-09
  1 278 354  1 279 354  9.98544997E-11
  1 271 482  1 272 482  1.26932007E-10
  1 271 482  1 272 482  1.26932007E-10
  1 213 293  1 214 293  8.99127972E-09
  1 277 385  1 278 385  1.19971002E-08
  1 278 360  1 279 360  6.23555985E-10
  1 182 237  1 183 237  1.82778006E-08
  1 182 237  1 182 236  1.82778006E-08
  1 278 362  1 279 362  9.28868982E-09
  1 278 380  1 279 380  3.99385996E-10
  1 278 361  1 279 361  6.40822018E-09
  1 278 363  1 279 363  4.95209984E-10
  1 255 609  1 256 609  1.69852998E-09
  1 278 353  1 279 353  4.01889988E-09
  1 182 238  1 183 238  1.48135004E-09
  1 213 292  1 214 292  5.64717995E-10
  1 213 292  1 213 291  5.64717995E-10
  1 268 555  1 269 555       0.00806483
  1 268 555  1 268 556       0.00806483
  1 307 441  1 308 441  1.41580003E-09
  1 278 366  1 279 366  1.07421005E-09
  1 278 376  1 279 376  7.12336024E-10
  1 278 367  1 279 367  1.58402999E-10
  1 184 244  1 185 244  3.68792996E-10
  1 185 245  1 185 244  1.11447997E-08
  1 213 294  1 214 294  4.15018991E-10
  1 306 432  1 307 432  1.46262003E-09
  1 278 352  1 279 352  2.06542006E-09
  1 277 341  1 278 341  3.31054006E-09
  1 278 373  1 279 373  1.57024005E-09
  1 278 378  1 279 378  1.70011005E-09
  1 278 379  1 279 379  1.41068004E-10
  1 307 440  1 308 440  8.52773019E-10
  1 278 368  1 279 368  4.34148995E-10
  1 306 431  1 307 431  1.18929999E-09
  1 212 291  1 213 291  4.13383017E-09
  1 306 433  1 307 433  2.98802005E-09
  1 278 369  1 279 369  4.26526992E-09
  1 278 370  1 279 370  1.92121000E-10
  1 274 435  1 273 435  3.85524002E-10
  1 307 442  1 308 442  9.29122002E-10
  1 278 372  1 279 372  3.60212998E-10
  1 306 430  1 307 430  3.00506997E-09
  1 268 554  1 269 554       0.07100670
  1 277 430  1 277 429  2.22271002E-08
  1 266 560  1 267 560  9.87691040E-10
  1 183 241  1 184 241  7.53875018E-10
  1 278 351  1 279 351  6.27264019E-09
  1 278 371  1 279 371  1.06656000E-08
  1 214 303  1 215 303  3.91465999E-10
  1 266 559  1 267 559  5.71361980E-09
  1 183 240  1 184 240  2.97075009E-09
  1 277 386  1 278 386  2.26173995E-08
  1 277 337  1 276 337  8.20137014E-11
  1 278 429  1 277 429  1.08700005E-09
  1 306 429  1 307 429  4.95103014E-10
  1 212 290  1 213 290  4.96806984E-10
  1 274 436  1 273 436  6.60222987E-10
  1 277 336  1 276 336  2.90885993E-07
  1 307 439  1 308 439  6.36746975E-08
  1 277 388  1 278 388  4.19321999E-09
  1 266 563  1 267 563  5.40057998E-09
  1 278 374  1 279 374  3.70436992E-09
  1 278 375  1 279 375  2.66369007E-08
  1 181 236  1 182 236  5.57105011E-08
  1 271 486  1 272 486  3.44075985E-08
  1 181 234  1 182 234  3.85797989E-08
  1 181 234  1 181 233  3.85797989E-08
  1 266 561  1 267 561  1.51198005E-08
  1 184 243  1 185 243  2.55013011E-10
  1 277 340  1 278 340  2.04379003E-09
  1 274 439  1 273 439  1.89780991E-09
  1 306 428  1 307 428  2.36973001E-08
  1 306 434  1 307 434  1.66107998E-08
  1 274 437  1 273 437  2.32792008E-09
  1 271 485  1 272 485  1.83782998E-08
  1 274 438  1 273 438  2.05846007E-09
  1 282 390  1 281 390  7.37801020E-09
  1 277 335  1 276 335  3.75522013E-09
  1 266 564  1 267 564  1.05439000E-08
  1 266 564  1 266 565  1.05439000E-08
  1 276 332  1 277 332  6.94836988E-09
  1 306 435  1 307 435  8.50957971E-09
  1 271 484  1 272 484  2.93153004E-08
  1 180 233  1 181 233  3.45166007E-09
  1 276 334  1 277 334  2.60958011E-09
  1 277 338  1 276 338  5.56438007E-09
  1 271 483  1 272 483  9.05748010E-09
  1 277 430  1 276 430  2.22271002E-08
  1 276 333  1 277 333  4.85849982E-09
  1 259 383  1 260 383  3.89449006E-08
  1 259 383  1 259 382  3.89449006E-08
  1 259 383  1 259 382  3.89449006E-08
  1 306 436  1 307 436  2.64299995E-08
  1 274 440  1 273 440  3.14368016E-08
  1 282 389  1 281 389  1.25927997E-08
  1 180 232  1 181 232  5.37765998E-10
  1 180 232  1 180 231  5.37765998E-10
  1 307 437  1 308 437  1.16603998E-08
  1 307 437  1 307 436  1.16603998E-08
  1 318 427  1 317 427  2.15880007E-08
  1 307 443  1 308 443  3.10649995E-08
  1 265 565  1 266 565  9.97193972E-09
  1 181 235  1 182 235  3.29254002E-09
  1 277 389  1 278 389  1.88748999E-08
  1 307 438  1 308 438  8.13936030E-09
  1 277 390  1 278 390  7.05680989E-08
  1 267 556  1 268 556       0.01028680
  1 282 391  1 281 391  1.06864000E-07
  1 276 432  1 275 432  2.38982989E-09
  1 213 295  1 214 295  7.61333996E-10
  1 212 289  1 213 289  5.93544991E-09
  1 212 287  1 213 287  5.12102005E-09
  1 276 328  1 277 328  5.35551017E-08
  1 276 328  1 276 327  5.35551017E-08
  1 258 337  1 259 337       0.04373170
  1 311 385  1 311 386  2.18450004E-05
  1 308 423  1 309 423  2.99285996E-09
  1 276 329  1 277 329  2.69089995E-09
  1 185 247  1 186 247  3.97104998E-08
  1 312 389  1 312 390  7.97182020E-06
  1 308 424  1 309 424  1.89678997E-06
  1 186 248  1 187 248  1.49396993E-08
  1 186 248  1 186 247  1.49396993E-08
  1 212 286  1 213 286  5.85179016E-08
  1 212 286  1 212 285  5.85179016E-08
  1 259 338  1 259 337  1.04197998E-05
  1 282 388  1 281 388  1.93030996E-08
  1 212 288  1 213 288  1.10114001E-07
  1 159 165  1 160 165  5.97494987E-09
  1 318 426  1 317 426  1.52313007E-08
  1 277 339  1 276 339  5.36957003E-08
  1 277 339  1 277 340  5.36957003E-08
  1 282 387  1 282 386  3.81421996E-05
  1 266 562  1 267 562  7.49921014E-09
  1 277 391  1 278 391  5.74921000E-09
  1 256 329  1 256 330       0.02716180
  1 278 425  1 277 425  1.10203002E-08
  1 278 426  1 277 426  2.36387994E-08
  1 258 382  1 259 382  1.91534994E-07
  1 258 382  1 259 382  1.91534994E-07
  1 258 334  1 257 334       0.00553504
  1 258 334  1 258 335       0.00553504
  1 278 424  1 279 424  8.00485012E-10
  1 278 424  1 278 425  8.00485012E-10
  1 277 387  1 278 387  7.42808981E-10
  1 275 322  1 276 322  8.12307022E-09
  1 275 322  1 275 321  8.12307022E-09
  1 275 326  1 276 326  2.04436995E-10
  1 160 161  1 161 161  5.62980995E-09
  1 160 161  1 160 162  5.62980995E-09
  1 186 250  1 187 250  9.72655023E-09
  1 307 444  1 308 444  5.22711012E-08
  1 187 251  1 187 250  9.55591968E-05
  1 275 327  1 276 327  1.71866998E-09
  1 318 425  1 317 425  5.26984989E-09
  1 275 323  1 276 323  5.01870012E-08
  1 314 412  1 315 412  3.22201998E-08
  1 256 175  1 257 175  1.22186998E-08
  1 257 332  1 256 332       0.00914455
  1 257 332  1 257 333       0.00914455
  1 318 424  1 317 424  1.40068996E-08
  1 268 550  1 269 550  4.36580994E-10
  1 268 550  1 269 550  4.36580994E-10
  1 257 604  1 258 604  9.86749971E-09
  1 317 423  1 317 424  4.26910010E-05
  1 257 331  1 256 331       0.02055150
  1 185 245  1 186 245  1.11447997E-08
  1 308 452  1 309 452  2.27450000E-05
  1 307 425  1 308 425  7.86611998E-10
  1 274 321  1 275 321  9.65744995E-09
  1 263 579  1 264 579  2.22460006E-08
  1 313 414  1 314 414  3.74553011E-09
  1 312 386  1 311 386  1.37395002E-08
  1 307 451  1 308 451  2.42406006E-08
  1 256 330  1 257 330       0.00504441
  1 256 174  1 257 174  1.30260996E-05
  1 282 387  1 281 387  3.81421996E-05
  1 263 580  1 264 580  7.87391982E-05
  1 258 381  1 259 381       0.00460294
  1 258 381  1 259 381       0.00460294
  1 311 382  1 310 382  9.12915027E-07
  1 311 381  1 310 381  1.05917998E-05
  1 257 605  1 258 605  2.41613998E-05
  1 256 178  1 257 178  8.57445002E-07
  1 222 354  1 223 354  2.92539994E-06
  1 222 354  1 223 354  2.92539994E-06
  1 312 389  1 311 389  7.97182020E-06
  1 308 453  1 309 453  5.36336984E-06
  1 307 450  1 308 450  1.49350999E-05
  1 308 424  1 308 425  1.89678997E-06
  1 307 445  1 308 445  1.92764992E-06
  1 314 413  1 315 413  7.21537981E-06
  1 314 413  1 314 414  7.21537981E-06
  1 308 452  1 308 451  2.27450000E-05
  1 311 380  1 310 380  3.35268993E-07
  1 159 164  1 160 164  5.70652010E-05
  1 264 577  1 265 577       0.00597582
  1 311 378  1 310 378  4.57144997E-05
  1 311 379  1 310 379  4.36040000E-06
  1 257 333  1 258 333      16.55360031
  1 255 168  1 256 168  9.12889027E-06
  1 310 420  1 311 420  2.87914008E-05
  1 310 420  1 310 421  2.87914008E-05
  1 255 171  1 256 171  6.30252998E-06
  1 318 428  1 317 428  7.61299998E-06
  1 277 396  1 278 396  6.06756985E-05
  1 263 581  1 264 581  3.26323993E-06
  1 312 416  1 313 416  5.97003018E-05
  1 277 393  1 278 393  2.41844009E-05
  1 257 181  1 258 181  3.34225001E-06
  1 222 353  1 223 353  9.63425991E-05
  1 259 384  1 260 384  2.91097003E-05
  1 259 384  1 260 384  2.91097003E-05
  1 256 173  1 257 173  3.12527004E-06
  1 311 377  1 310 377  4.07077005E-06
  1 255 167  1 256 167  9.92350033E-05
  1 255 167  1 255 166  9.92350033E-05
  1 179 231  1 180 231  6.36264986E-07
  1 311 385  1 310 385  2.18450004E-05
  1 256 177  1 257 177  2.53395992E-05
  1 223 352  1 224 352  1.15378003E-04
  1 223 352  1 223 353  1.15378003E-04
  1 277 392  1 278 392  7.48729008E-06
  1 274 320  1 275 320  1.08813001E-05
  1 186 249  1 187 249  6.70649024E-05
  1 275 325  1 276 325  5.26473013E-05
  1 282 392  1 281 392  5.71655983E-06
  1 282 394  1 281 394  2.24223004E-06
  1 278 427  1 277 427  2.60057004E-06
  1 313 415  1 314 415  2.38301000E-05
  1 313 415  1 313 416  2.38301000E-05
  1 315 411  1 316 411  2.24214000E-05
  1 315 411  1 315 412  2.24214000E-05
  1 194 145  1 195 145  1.05995001E-04
  1 256 172  1 257 172  1.16004003E-05
  1 256 172  1 256 171  1.16004003E-05
  1 161 213  1 162 213  8.63219975E-06
  1 211 285  1 212 285  3.06395009E-06
  1 308 454  1 309 454  3.01409000E-05
  1 257 180  1 258 180  8.59496026E-07
  1 307 446  1 308 446  9.69492976E-06
  1 256 176  1 257 176  1.02847998E-05
  1 317 422  1 316 422  1.01755995E-06
  1 311 374  1 310 374  8.02352986E-07
  1 263 583  1 264 583  8.75001024E-06
  1 223 351  1 224 351  1.03689999E-05
  1 160 209  1 161 209  5.00685985E-07
  1 283 386  1 282 386  7.40573978E-06
  1 282 393  1 281 393  3.11623990E-06
  1 329 423  1 330 423  7.55724977E-06
  1 274 318  1 275 318  4.80739982E-05
  1 313 390  1 312 390  6.11071982E-06
  1 160 208  1 161 208  2.79353003E-06
  1 307 449  1 308 449  4.21545019E-06
  1 274 317  1 275 317  2.70403998E-05
  1 274 317  1 274 316  2.70403998E-05
  1 254 164  1 255 164  2.42438000E-06
  1 195 150  1 196 150  9.87586986E-07
  1 330 424  1 331 424  3.42280009E-06
  1 330 424  1 330 423  3.42280009E-06
  1 311 419  1 312 419  6.76880006E-07
  1 311 419  1 311 420  6.76880006E-07
  1 160 205  1 161 205      45.25930023
  1 253 162  1 254 162  2.16920989E-06
  1 311 418  1 312 418  6.92653020E-06
  1 311 376  1 310 376  3.00111992E-06
  1 317 423  1 316 423  4.26910010E-05
  1 317 421  1 316 421  3.98466000E-06
  1 277 395  1 278 395  6.49650019E-07
  1 177 135  1 178 135       0.01057650
  1 177 135  1 178 135       0.01057650
  1 308 455  1 309 455  6.26495012E-06
  1 310 473  1 311 473  7.11689017E-06
  1 194 144  1 195 144  4.66734991E-06
  1 260 341  1 261 341  3.70304988E-05
  1 260 341  1 260 340  3.70304988E-05
  1 255 170  1 256 170  1.68678998E-05
  1 211 284  1 212 284  2.22699000E-05
  1 311 375  1 310 375  1.32276000E-06
  1 277 394  1 278 394  1.09413998E-06
  1 307 447  1 308 447  5.58534020E-06
  1 178 136  1 179 136       0.00181680
  1 178 136  1 178 135       0.00181680
  1 258 335  1 259 335       2.23229003
  1 179 137  1 180 137  8.70443007E-04
  1 179 137  1 179 136  8.70443007E-04
  1 274 319  1 275 319  2.04905991E-05
  1 259 338  1 260 338  1.04197998E-05
  1 211 283  1 212 283  4.77161011E-05
  1 223 350  1 224 350  1.65116001E-06
  1 160 206  1 161 206  5.35525987E-06
  1 275 324  1 276 324  1.20601999E-05
  1 228 234  1 229 234  4.72911015E-05
  1 317 420  1 316 420  4.28955991E-06
  1 229 235  1 230 235  1.05184998E-04
  1 229 235  1 229 234  1.05184998E-04
  1 159 162  1 160 162  2.09830000E-06
  1 311 384  1 310 384  2.01337002E-06
  1 254 163  1 255 163  9.15785040E-06
  1 254 163  1 254 162  9.15785040E-06
  1 308 456  1 309 456  1.23788004E-05
  1 257 182  1 258 182  1.20655995E-05
  1 312 417  1 313 417  2.16977992E-06
  1 312 417  1 312 418  2.16977992E-06
  1 160 207  1 161 207  4.36062010E-06
  1 259 340  1 260 340  5.34356013E-06
  1 282 395  1 281 395  6.34716980E-06
  1 254 374  1 255 374  8.23369010E-06
  1 161 212  1 162 212  8.35315041E-06
  1 280 424  1 281 424  3.72118993E-05
  1 177 134  1 178 134       0.07774720
  1 179 229  1 180 229  4.10501001E-04
  1 130 81  1 131 81  7.06128003E-06
  1 130 81  1 130 80  7.06128003E-06
  1 159 203  1 160 203  2.13069006E-06
  1 308 457  1 309 457  1.10219999E-05
  1 161 210  1 162 210  1.62355009E-05
  1 161 210  1 161 209  1.62355009E-05
  1 229 236  1 230 236  1.05601997E-04
  1 255 169  1 256 169  1.03365001E-05
  1 324 391  1 325 391  3.01183009E-05
  1 324 391  1 324 390  3.01183009E-05
  1 311 373  1 310 373  1.37340999E-06
  1 195 146  1 196 146  1.04257997E-05
  1 195 146  1 195 145  1.04257997E-05
  1 318 430  1 317 430  6.57156988E-06
  1 278 428  1 277 428  1.61281002E-06
  1 307 448  1 308 448  5.02679995E-06
  1 195 149  1 196 149  1.06734997E-05
  1 308 458  1 309 458  2.35562993E-06
  1 177 133  1 178 133       0.00461313
  1 177 133  1 177 132       0.00461313
  1 273 316  1 274 316  4.43268000E-05
  1 159 204  1 160 204  4.55050986E-06
  1 162 214  1 163 214  3.55328011E-05
  1 162 214  1 162 213  3.55328011E-05
  1 318 431  1 317 431  4.39018004E-06
  1 318 433  1 317 433  4.55121017E-06
  1 318 433  1 318 434  4.55121017E-06
  1 311 383  1 310 383  1.34794000E-05
  1 194 284  1 193 284  2.73845990E-06
  1 257 184  1 258 184  3.73161993E-06
  1 268 551  1 269 551       0.02081700
  1 159 202  1 160 202  8.77348975E-06
  1 260 342  1 261 342  2.78268999E-05
  1 331 428  1 332 428  1.50481996E-04
  1 325 402  1 326 402  5.61027991E-06
  1 317 412  1 316 412  4.73309001E-06
  1 257 183  1 258 183  4.39429004E-06
  1 276 330  1 277 330  3.12777993E-05
  1 250 617  1 251 617       0.00149268
  1 250 617  1 251 617       0.00149268
  1 331 427  1 332 427  2.31169997E-06
  1 331 427  1 331 426  2.31169997E-06
  1 310 471  1 311 471  3.88784019E-06
  1 254 375  1 255 375  4.92416984E-05
  1 294 415  1 295 415  3.90062996E-06
  1 309 421  1 310 421  6.47583011E-06
  1 160 159  1 161 159  8.64192989E-05
  1 160 159  1 161 159  8.64192989E-05
  1 282 396  1 281 396  2.74159993E-06
  1 313 392  1 312 392  2.19407993E-05
  1 313 392  1 313 393  2.19407993E-05
  1 185 246  1 186 246  2.06666991E-05
  1 312 388  1 311 388  9.26756002E-06
  1 268 473  1 269 473  4.68971994E-04
  1 268 473  1 268 472  4.68971994E-04
  1 188 254  1 188 253       0.00565212
  1 258 603  1 259 603  7.05290995E-06
  1 159 163  1 160 163       0.01560010
  1 256 377  1 257 377  1.37847001E-05
  1 256 377  1 256 376  1.37847001E-05
  1 254 166  1 255 166  5.38508004E-07
  1 187 253  1 188 253  6.38708980E-06
  1 328 415  1 329 415  3.76637990E-06
  1 255 376  1 256 376  6.68460007E-06
  1 255 376  1 255 375  6.68460007E-06
  1 317 417  1 316 417  1.32033001E-05
  1 176 132  1 177 132       8.66744995
  1 317 413  1 316 413  5.41728014E-06
  1 272 492  1 273 492  3.58781997E-11
  1 228 233  1 229 233  5.47069021E-06
  1 317 414  1 316 414  4.30604014E-05
  1 211 282  1 212 282  3.48758986E-05
  1 211 282  1 211 281  3.48758986E-05
  1 194 283  1 193 283  1.14249997E-06
  1 266 557  1 265 557  3.51249982E-05
  1 266 557  1 266 556  3.51249982E-05
  1 225 380  1 225 379       0.00276315
  1 179 230  1 180 230  3.02626995E-06
  1 325 401  1 326 401  4.91952005E-06
  1 265 566  1 266 566  3.17679005E-05
  1 228 231  1 229 231  1.32527002E-05
  1 228 232  1 229 232  7.48414022E-05
  1 294 414  1 295 414  2.36371989E-06
  1 283 414  1 283 413  1.47013998E-05
  1 283 385  1 282 385  1.70855001E-05
  1 254 323  1 255 323  1.23525997E-05
  1 257 185  1 258 185  1.28742004E-05
  1 270 433  1 271 433  7.28672967E-05
  1 317 415  1 316 415  2.69980992E-05
  1 309 422  1 310 422  5.93473987E-06
  1 309 422  1 309 423  5.93473987E-06
  1 253 159  1 254 159  1.96960991E-05
  1 253 159  1 253 158  1.96960991E-05
  1 319 434  1 318 434  9.47077012E-07
  1 162 215  1 163 215  1.45923002E-06
  1 226 218  1 227 218  1.32797004E-05
  1 328 417  1 329 417  3.14704012E-05
  1 308 459  1 309 459  4.29003012E-05
  1 163 217  1 164 217  7.07289018E-06
  1 294 416  1 295 416  2.04840999E-05
  1 294 418  1 295 418  5.27552984E-05
  1 310 472  1 311 472  5.12777988E-05
  1 329 418  1 330 418  3.29045997E-06
  1 329 418  1 329 417  3.29045997E-06
  1 258 186  1 259 186  8.39882996E-05
  1 258 186  1 258 185  8.39882996E-05
  1 207 158  1 208 158  2.09705995E-05
  1 207 158  1 207 157  2.09705995E-05
  1 312 387  1 311 387  6.13126977E-05
  1 325 400  1 326 400  1.31768002E-06
  1 324 392  1 325 392  1.83973998E-06
  1 277 397  1 278 397  5.26916992E-05
  1 274 534  1 273 534  4.57949995E-04
  1 259 339  1 260 339  1.75716002E-06
  1 317 416  1 316 416  1.88797003E-05
  1 164 218  1 165 218  6.02977980E-06
  1 164 218  1 164 217  6.02977980E-06
  1 332 432  1 333 432  3.85687017E-05
  1 256 607  1 257 607  5.31415979E-04
  1 318 432  1 317 432  1.72474995E-06
  1 309 468  1 310 468  8.24712970E-06
  1 282 397  1 281 397  1.75681998E-06
  1 227 219  1 228 219  3.14634017E-05
  1 227 219  1 227 218  3.14634017E-05
  1 273 315  1 274 315  2.20590991E-05
  1 195 147  1 196 147  2.90462995E-05
  1 273 314  1 274 314  1.70323005E-06
  1 208 161  1 209 161  1.81158000E-04
  1 208 161  1 208 160  1.81158000E-04
  1 327 408  1 328 408  6.07937000E-06
  1 332 431  1 333 431  8.12073995E-06
  1 332 431  1 332 430  8.12073995E-06
  1 294 420  1 295 420  9.31141983E-07
  1 294 417  1 295 417  1.28188003E-05
  1 311 372  1 310 372  1.93024994E-06
  1 129 80  1 130 80  9.65945037E-06
  1 309 465  1 310 465  3.67800999E-06
  1 309 465  1 309 464  3.67800999E-06
  1 327 407  1 328 407  9.97975985E-06
  1 327 407  1 327 406  9.97975985E-06
  1 273 313  1 274 313  5.27457996E-05
  1 273 313  1 273 312  5.27457996E-05
  1 282 398  1 281 398  1.58955004E-06
  1 328 414  1 329 414  2.95256996E-06
  1 324 393  1 325 393  2.57367992E-05
  1 254 322  1 255 322       0.00253343
  1 330 426  1 331 426  6.63353012E-06
  1 310 470  1 311 470  1.58469993E-05
  1 328 416  1 329 416  1.08483997E-04
  1 184 142  1 185 142       0.03080540
  1 184 142  1 184 141       0.03080540
  1 308 464  1 309 464  2.65234007E-06
  1 229 237  1 230 237  3.81317986E-05
  1 310 469  1 311 469  2.82223991E-05
  1 310 469  1 310 468  2.82223991E-05
  1 228 230  1 229 230  3.28370006E-05
  1 279 423  1 278 423  2.36638007E-05
  1 294 413  1 295 413  1.10861004E-06
  1 294 413  1 294 412  1.10861004E-06
  1 267 551  1 268 551  7.07501968E-05
  1 267 551  1 268 551  7.07501968E-05
  1 271 491  1 272 491       0.01114640
  1 271 491  1 272 491       0.01114640
  1 271 491  1 272 491       0.01114640
  1 196 154  1 197 154  7.35445019E-06
  1 180 138  1 181 138       0.00300322
  1 180 138  1 180 137       0.00300322
  1 229 238  1 230 238  2.59681001E-05
  1 324 398  1 325 398  1.29750003E-06
  1 276 331  1 277 331  1.55502003E-05
  1 261 345  1 262 345  3.96534997E-05
  1 255 370  1 256 370  1.02351996E-05
  1 197 156  1 198 156  1.81880005E-05
  1 197 156  1 197 155  1.81880005E-05
  1 161 211  1 162 211  7.73302986E-07
  1 306 426  1 307 426  1.46822003E-05
  1 324 397  1 325 397  2.94128004E-05
  1 325 404  1 326 404  1.38019996E-05
  1 331 430  1 332 430  2.09161008E-05
  1 196 155  1 197 155  7.77231035E-05
  1 177 226  1 178 226  3.68351994E-06
  1 314 393  1 313 393  1.37039001E-06
  1 327 411  1 328 411  1.91702002E-05
  1 331 429  1 332 429  5.87925979E-06
  1 317 411  1 316 411  1.58987004E-05
  1 163 216  1 164 216  5.35626987E-06
  1 163 216  1 163 215  5.35626987E-06
  1 328 412  1 329 412  2.39190995E-05
  1 328 412  1 328 411  2.39190995E-05
  1 332 433  1 333 433  1.78936007E-05
  1 210 167  1 211 167  2.44150997E-05
  1 210 167  1 210 166  2.44150997E-05
  1 130 82  1 131 82  1.15368005E-06
  1 313 391  1 312 391  7.48027014E-05
  1 329 419  1 330 419  4.31275993E-07
  1 224 348  1 225 348  2.26192005E-05
  1 308 462  1 309 462  2.26276006E-06
  1 196 151  1 197 151  3.39762011E-07
  1 196 151  1 196 150  3.39762011E-07
  1 327 409  1 328 409  2.60693992E-06
  1 325 403  1 326 403  1.28027004E-05
  1 308 463  1 309 463  3.23454992E-06
  1 293 412  1 294 412  1.16550000E-05
  1 226 214  1 227 214  4.94226006E-05
  1 160 177  1 161 177       1.91218996
  1 226 217  1 227 217  4.67226982E-06
  1 209 164  1 210 164  1.91251995E-04
  1 209 164  1 209 163  1.91251995E-04
  1 282 399  1 281 399  1.62771005E-06
  1 271 487  1 272 487  1.09130997E-05
  1 206 157  1 207 157  9.85150036E-05
  1 252 158  1 253 158  9.21301989E-07
  1 206 156  1 207 156  1.62332999E-05
  1 205 245  1 206 245  8.50443030E-05
  1 294 421  1 295 421  2.45976003E-06
  1 177 225  1 178 225  1.05869003E-06
  1 177 225  1 177 224  1.05869003E-06
  1 323 390  1 324 390  1.13737997E-05
  1 207 160  1 208 160  1.55768006E-07
  1 212 177  1 213 177  1.06191997E-04
  1 165 219  1 165 218       0.37920901
  1 229 239  1 230 239  2.19534995E-05
  1 328 413  1 329 413  2.20465008E-05
  1 255 369  1 256 369  1.89982995E-06
  1 255 369  1 255 368  1.89982995E-06
  1 159 201  1 160 201  1.65208003E-05
  1 187 251  1 188 251  9.55591968E-05
  1 258 187  1 259 187  5.70752018E-05
  1 261 346  1 262 346  2.29085999E-05
  1 271 428  1 271 429       0.02649120
  1 271 306  1 272 306  7.41567010E-06
  1 167 232  1 167 231       0.02265770
  1 272 312  1 273 312  1.20555997E-05
  1 327 410  1 328 410  2.74436002E-06
  1 277 399  1 278 399  5.79964990E-06
  1 208 162  1 209 162  3.01750006E-05
  1 224 347  1 225 347  1.02028998E-05
  1 236 269  1 237 269  8.20276000E-06
  1 236 269  1 236 268  8.20276000E-06
  1 195 260  1 196 260  1.63471006E-04
  1 195 260  1 195 259  1.63471006E-04
  1 317 419  1 316 419  4.70275008E-05
  1 277 398  1 278 398  3.31564006E-05
  1 272 491  1 273 491  3.39293995E-13
  1 285 414  1 285 413  6.83996996E-06
  1 267 550  1 268 550  3.51238996E-05
  1 324 396  1 325 396  1.26716996E-05
  1 262 347  1 262 346       0.00851225
  1 227 220  1 228 220  2.48406996E-05
  1 129 79  1 130 79  7.71256964E-06
  1 129 79  1 130 79  7.71256964E-06
  1 280 423  1 281 423  3.45289004E-06
  1 254 366  1 255 366  1.57891001E-04
  1 207 250  1 208 250  7.24143001E-06
  1 209 166  1 210 166  4.80037988E-06
  1 271 489  1 272 489  5.21953007E-06
  1 253 160  1 254 160  6.30962968E-05
  1 277 469  1 276 469  4.27555005E-06
  1 207 159  1 208 159  3.41875989E-07
  1 231 252  1 232 252  8.28842985E-06
  1 274 396  1 275 396  1.94979002E-04
  1 274 396  1 275 396  1.94979002E-04
  1 210 281  1 211 281  1.27055000E-06
  1 268 553  1 269 553       0.00916435
  1 130 83  1 131 83  1.30887001E-05
  1 270 304  1 271 304  2.80526001E-05
  1 319 435  1 318 435  2.23497000E-06
  1 277 470  1 276 470  2.82812998E-05
  1 270 429  1 271 429  2.60533011E-06
  1 227 221  1 228 221  2.71279005E-05
  1 277 468  1 276 468  5.79586003E-06
  1 232 253  1 232 252       0.01494570
  1 197 159  1 198 159  6.11052019E-05
  1 206 247  1 207 247  2.12540999E-05
  1 166 231  1 167 231  1.40415996E-05
  1 271 305  1 272 305  7.24761994E-05
  1 271 305  1 271 304  7.24761994E-05
  1 176 224  1 177 224  5.65466007E-06
  1 208 292  1 209 292  1.39813001E-05
  1 260 343  1 261 343  1.29175999E-06
  1 258 336  1 259 336       2.35315990
  1 274 397  1 275 397  8.76922968E-06
  1 274 397  1 275 397  8.76922968E-06
  1 209 165  1 210 165  1.41281998E-06
  1 323 389  1 324 389  1.00561001E-05
  1 258 191  1 259 191  2.36563005E-06
  1 311 371  1 310 371  2.51418010E-06
  1 274 537  1 273 537       0.02446020
  1 164 222  1 165 222  2.82513993E-05
  1 254 165  1 255 165  4.96474013E-06
  1 235 266  1 236 266  3.66440986E-07
  1 208 163  1 209 163  9.84182043E-06
  1 212 174  1 213 174  1.57341001E-05
  1 232 256  1 233 256  4.32337984E-05
  1 233 257  1 233 256       0.02036490
  1 194 280  1 193 280  2.45041997E-06
  1 274 538  1 273 538       0.00202226
  1 207 248  1 207 247       0.00427538
  1 276 478  1 275 478  3.74469005E-06
  1 234 264  1 235 264  1.13701003E-06
  1 254 368  1 255 368  3.41983991E-06
  1 210 279  1 211 279  4.83483018E-05
  1 233 260  1 234 260  1.74036995E-06
  1 230 244  1 231 244  3.99654018E-05
  1 274 398  1 275 398  2.28596991E-06
  1 274 398  1 275 398  2.28596991E-06
  1 236 271  1 237 271  2.78866992E-05
  1 231 248  1 232 248       0.00175172
  1 212 175  1 213 175  5.76630991E-05
  1 185 143  1 186 143       0.04622880
  1 185 143  1 185 142       0.04622880
  1 230 243  1 231 243       0.06637310
  1 234 261  1 234 260       0.00116450
  1 326 406  1 327 406  2.85030001E-05
  1 258 595  1 259 595  5.67977986E-06
  1 317 418  1 316 418       0.00289008
  1 268 549  1 268 550       0.00263741
  1 194 285  1 193 285       0.02966510
  1 226 215  1 227 215       0.03136650
  1 236 270  1 237 270       0.01325290
  1 213 178  1 214 178       0.01221840
  1 213 178  1 213 177       0.01221840
  1 202 238  1 203 238       0.00175496
  1 158 199  1 159 199       0.00583578
  1 271 479  1 272 479       0.01673360
  1 293 411  1 294 411       0.02119150
  1 261 344  1 262 344       0.01931430
  1 261 344  1 261 343       0.01931430
  1 259 193  1 260 193       0.03301010
  1 204 242  1 205 242  4.19254007E-04
  1 233 257  1 234 257       0.02036490
  1 188 254  1 189 254       0.00565212
  1 165 221  1 166 221       0.01817120
  1 165 221  1 165 222       0.01817120
  1 294 422  1 295 422       0.00451047
  1 324 394  1 325 394       0.01078460
  1 270 434  1 271 434       0.00146441
  1 235 265  1 236 265       0.00718658
  1 235 265  1 235 264       0.00718658
  1 270 436  1 271 436       0.00441227
  1 228 227  1 229 227       0.00212118
  1 196 263  1 197 263       0.01427050
  1 196 263  1 196 262       0.01427050
  1 234 261  1 235 261       0.00116450
  1 277 471  1 276 471       0.00565350
  1 229 242  1 230 242       0.00237795
  1 229 241  1 230 241       0.01317540
  1 252 157  1 253 157       0.03085270
  1 279 187  1 280 187       0.00208264
  1 203 239  1 204 239       0.03539140
  1 203 239  1 203 238       0.03539140
  1 277 400  1 278 400       0.00434743
  1 193 279  1 192 279       0.01762930
  1 193 279  1 193 280       0.01762930
  1 332 434  1 333 434       0.00725663
  1 254 365  1 255 365       0.05282410
  1 268 475  1 269 475       0.00768878
  1 271 307  1 272 307       0.02006460
  1 230 243  1 230 242       0.06637310
  1 276 475  1 275 475       0.00215428
  1 159 200  1 160 200       0.04949280
  1 159 200  1 159 199       0.04949280
  1 253 161  1 254 161       0.00639809
  1 183 141  1 184 141       8.43916035
  1 183 141  1 183 140       8.43916035
  1 264 574  1 265 574       0.02564860
  1 264 574  1 265 574       0.02564860
  1 326 405  1 327 405       0.00683711
  1 326 405  1 326 404       0.00683711
  1 210 280  1 211 280       0.00188137
  1 272 309  1 273 309       0.00492136
  1 272 309  1 272 308       0.00492136
  1 278 402  1 279 402       0.00183394
  1 278 402  1 278 401       0.00183394
  1 230 247  1 231 247       0.00519663
  1 277 472  1 276 472       0.01789420
  1 209 298  1 210 298       0.00126101
  1 209 298  1 209 297       0.00126101
  1 258 596  1 259 596       0.00309086
  1 233 259  1 234 259       0.00160925
  1 213 180  1 214 180       0.02783030
  1 254 367  1 255 367       0.00336687
  1 231 248  1 231 247       0.00175172
  1 264 474  1 263 474       0.01105670
  1 264 474  1 263 474       0.01105670
  1 212 176  1 213 176       0.01949260
  1 226 213  1 227 213       0.27885699
  1 237 273  1 238 273       0.00364407
  1 237 273  1 237 272       0.00364407
  1 213 179  1 214 179       0.00253338
  1 210 261  1 211 261       0.05371360
  1 294 423  1 295 423       0.47493100
  1 294 423  1 294 424       0.47493100
  1 274 531  1 273 531       0.00213807