# File generated by Flopy version 3.3.6 on 04/13/2023 at 23:02:33.
BEGIN dimensions
  MAXATS  40
END dimensions

BEGIN perioddata
  141       0.10000000       0.01000000       1.00000000       2.00000000       5.00000000
  142       0.10000000       0.01000000       1.00000000       2.00000000       5.00000000
  143       0.10000000       0.01000000       1.00000000       2.00000000       5.00000000
  144       0.10000000       0.01000000       1.00000000       2.00000000       5.00000000
  145       0.10000000       0.01000000       1.00000000       2.00000000       5.00000000
  146       0.10000000       0.01000000       1.00000000       2.00000000       5.00000000
  147       0.10000000       0.01000000       1.00000000       2.00000000       5.00000000
  148       0.10000000       0.01000000       1.00000000       2.00000000       5.00000000
  149       0.10000000       0.01000000       1.00000000       2.00000000       5.00000000
  150       0.10000000       0.01000000       1.00000000       2.00000000       5.00000000
  151       0.10000000       0.01000000       1.00000000       2.00000000       5.00000000
  152       0.10000000       0.01000000       1.00000000       2.00000000       5.00000000
  153       0.10000000       0.01000000       1.00000000       2.00000000       5.00000000
  154       0.10000000       0.01000000       1.00000000       2.00000000       5.00000000
  155       0.10000000       0.01000000       1.00000000       2.00000000       5.00000000
  156       0.10000000       0.01000000       1.00000000       2.00000000       5.00000000
  157       0.10000000       0.01000000       1.00000000       2.00000000       5.00000000
  158       0.10000000       0.01000000       1.00000000       2.00000000       5.00000000
  159       0.10000000       0.01000000       1.00000000       2.00000000       5.00000000
  160       0.10000000       0.01000000       1.00000000       2.00000000       5.00000000
  161       0.10000000       0.01000000       1.00000000       2.00000000       5.00000000
  162       0.10000000       0.01000000       1.00000000       2.00000000       5.00000000
  163       0.10000000       0.01000000       1.00000000       2.00000000       5.00000000
  164       0.10000000       0.01000000       1.00000000       2.00000000       5.00000000
  165       0.10000000       0.01000000       1.00000000       2.00000000       5.00000000
  166       0.10000000       0.01000000       1.00000000       2.00000000       5.00000000
  167       0.10000000       0.01000000       1.00000000       2.00000000       5.00000000
  168       0.10000000       0.01000000       1.00000000       2.00000000       5.00000000
  169       0.10000000       0.01000000       1.00000000       2.00000000       5.00000000
  170       0.10000000       0.01000000       1.00000000       2.00000000       5.00000000
  171       0.10000000       0.01000000       1.00000000       2.00000000       5.00000000
  172       0.10000000       0.01000000       1.00000000       2.00000000       5.00000000
  173       0.10000000       0.01000000       1.00000000       2.00000000       5.00000000
  174       0.10000000       0.01000000       1.00000000       2.00000000       5.00000000
  175       0.10000000       0.01000000       1.00000000       2.00000000       5.00000000
  176       0.10000000       0.01000000       1.00000000       2.00000000       5.00000000
  177       0.10000000       0.01000000       1.00000000       2.00000000       5.00000000
  178       0.10000000       0.01000000       1.00000000       2.00000000       5.00000000
  179       0.10000000       0.01000000       1.00000000       2.00000000       5.00000000
  180       0.10000000       0.01000000       1.00000000       2.00000000       5.00000000
END perioddata

