# File generated by Flopy version 3.3.6 on 04/13/2023 at 23:02:56.
BEGIN options
  DIGITS  10
  PRINT_INPUT
END options

BEGIN continuous  FILEOUT  index_wells_obs.csv
  J17  head  1 285 439
  J27  head  1 162 128
END continuous  FILEOUT  index_wells_obs.csv

