# File generated by Flopy version 3.3.6 on 04/13/2023 at 23:02:33.
BEGIN options
  NOCHECK
END options

BEGIN timing
  TDIS6  EAA_MF6.tdis
END timing

BEGIN models
  gwf6  eaa_flow_model.nam  eaa_flow_model
END models

BEGIN exchanges
END exchanges

BEGIN solutiongroup  1
  ims6  EAA_MF6.ims  eaa_flow_model
END solutiongroup  1

