# HFB6 package for MODFLOW-2005 generated by Flopy 3.3.6
         0         0      3379
         1       216       321       217       321      6.44524
         1       216       319       217       319  2.07554e-09
         1       215       309       216       309  1.30489e-09
         1       216       315       217       315  5.74094e-10
         1       216       315       216       314  5.74094e-10
         1       216       316       217       316  5.48797e-10
         1       215       307       216       307  5.24158e-09
         1       215       307       215       306  5.24158e-09
         1       216       318       217       318  6.73778e-10
         1       216       317       217       317  1.92649e-10
         1       215       325       216       325  2.95997e-09
         1       215       324       216       324  2.20937e-09
         1       215       314       216       314   9.6973e-10
         1       215       313       216       313  1.60293e-09
         1       214       306       215       306   3.7392e-09
         1       215       308       216       308  1.97134e-09
         1       214       305       215       305  4.56827e-09
         1       215       312       216       312  3.54636e-10
         1       215       326       216       326  6.19918e-11
         1       215       327       216       327  2.13955e-10
         1       215       328       216       328  1.22982e-10
         1       215       310       216       310  1.53346e-10
         1       216       323       217       323  1.50013e-08
         1       216       323       216       324  1.50013e-08
         1       215       311       216       311  8.75794e-10
         1       214       300       215       300  8.53691e-09
         1       214       300       214       299  8.53691e-09
         1       215       329       216       329  7.45177e-10
         1       214       301       215       301  4.87759e-11
         1       213       299       214       299  8.64271e-09
         1       216       322       217       322   1.3184e-09
         1       268       549       269       549   0.00263741
         1       268       549       269       549   0.00263741
         1       268       549       269       549   0.00263741
         1       269       548       269       549    0.0134903
         1       213       298       214       298  1.69707e-09
         1       226       383       226       382  8.58254e-11
         1       225       382       226       382      0.35308
         1       213       297       214       297  3.78396e-09
         1       216       320       217       320  9.26426e-10
         1       277       384       278       384   1.0348e-09
         1       278       382       279       382  1.98708e-09
         1       278       382       278       383  1.98708e-09
         1       277       383       278       383  2.28667e-10
         1       225       381       226       381  3.03609e-09
         1       214       302       215       302  9.22121e-09
         1       278       357       279       357  3.99902e-09
         1       278       358       279       358  6.58888e-10
         1       278       355       279       355  1.71881e-09
         1       278       356       279       356  2.15953e-10
         1       278       359       279       359  2.64527e-09
         1       278       381       279       381  2.49125e-09
         1       214       304       215       304  3.12745e-09
         1       278       377       279       377  1.05214e-09
         1       278       354       279       354  9.98545e-11
         1       271       482       272       482  1.26932e-10
         1       271       482       272       482  1.26932e-10
         1       213       293       214       293  8.99128e-09
         1       277       385       278       385  1.19971e-08
         1       278       360       279       360  6.23556e-10
         1       182       237       183       237  1.82778e-08
         1       182       237       182       236  1.82778e-08
         1       278       362       279       362  9.28869e-09
         1       278       380       279       380  3.99386e-10
         1       278       361       279       361  6.40822e-09
         1       278       363       279       363   4.9521e-10
         1       255       609       256       609  1.69853e-09
         1       278       353       279       353   4.0189e-09
         1       182       238       183       238  1.48135e-09
         1       213       292       214       292  5.64718e-10
         1       213       292       213       291  5.64718e-10
         1       268       555       269       555   0.00806483
         1       268       555       268       556   0.00806483
         1       307       441       308       441   1.4158e-09
         1       278       366       279       366  1.07421e-09
         1       278       376       279       376  7.12336e-10
         1       278       367       279       367  1.58403e-10
         1       184       244       185       244  3.68793e-10
         1       185       245       185       244  1.11448e-08
         1       213       294       214       294  4.15019e-10
         1       306       432       307       432  1.46262e-09
         1       278       352       279       352  2.06542e-09
         1       277       341       278       341  3.31054e-09
         1       278       373       279       373  1.57024e-09
         1       278       378       279       378  1.70011e-09
         1       278       379       279       379  1.41068e-10
         1       307       440       308       440  8.52773e-10
         1       278       368       279       368  4.34149e-10
         1       306       431       307       431   1.1893e-09
         1       212       291       213       291  4.13383e-09
         1       306       433       307       433  2.98802e-09
         1       278       369       279       369  4.26527e-09
         1       278       370       279       370  1.92121e-10
         1       274       435       273       435  3.85524e-10
         1       307       442       308       442  9.29122e-10
         1       278       372       279       372  3.60213e-10
         1       306       430       307       430  3.00507e-09
         1       268       554       269       554    0.0710067
         1       277       430       277       429  2.22271e-08
         1       266       560       267       560  9.87691e-10
         1       183       241       184       241  7.53875e-10
         1       278       351       279       351  6.27264e-09
         1       278       371       279       371  1.06656e-08
         1       214       303       215       303  3.91466e-10
         1       266       559       267       559  5.71362e-09
         1       183       240       184       240  2.97075e-09
         1       277       386       278       386  2.26174e-08
         1       277       337       276       337  8.20137e-11
         1       278       429       277       429    1.087e-09
         1       306       429       307       429  4.95103e-10
         1       212       290       213       290  4.96807e-10
         1       274       436       273       436  6.60223e-10
         1       277       336       276       336  2.90886e-07
         1       307       439       308       439  6.36747e-08
         1       277       388       278       388  4.19322e-09
         1       266       563       267       563  5.40058e-09
         1       278       374       279       374  3.70437e-09
         1       278       375       279       375  2.66369e-08
         1       181       236       182       236  5.57105e-08
         1       271       486       272       486  3.44076e-08
         1       181       234       182       234  3.85798e-08
         1       181       234       181       233  3.85798e-08
         1       266       561       267       561  1.51198e-08
         1       184       243       185       243  2.55013e-10
         1       277       340       278       340  2.04379e-09
         1       274       439       273       439  1.89781e-09
         1       306       428       307       428  2.36973e-08
         1       306       434       307       434  1.66108e-08
         1       274       437       273       437  2.32792e-09
         1       271       485       272       485  1.83783e-08
         1       274       438       273       438  2.05846e-09
         1       282       390       281       390  7.37801e-09
         1       277       335       276       335  3.75522e-09
         1       266       564       267       564  1.05439e-08
         1       266       564       266       565  1.05439e-08
         1       276       332       277       332  6.94837e-09
         1       306       435       307       435  8.50958e-09
         1       271       484       272       484  2.93153e-08
         1       180       233       181       233  3.45166e-09
         1       276       334       277       334  2.60958e-09
         1       277       338       276       338  5.56438e-09
         1       271       483       272       483  9.05748e-09
         1       277       430       276       430  2.22271e-08
         1       276       333       277       333   4.8585e-09
         1       259       383       260       383  3.89449e-08
         1       259       383       259       382  3.89449e-08
         1       259       383       259       382  3.89449e-08
         1       306       436       307       436    2.643e-08
         1       274       440       273       440  3.14368e-08
         1       282       389       281       389  1.25928e-08
         1       180       232       181       232  5.37766e-10
         1       180       232       180       231  5.37766e-10
         1       307       437       308       437  1.16604e-08
         1       307       437       307       436  1.16604e-08
         1       318       427       317       427   2.1588e-08
         1       307       443       308       443   3.1065e-08
         1       265       565       266       565  9.97194e-09
         1       181       235       182       235  3.29254e-09
         1       277       389       278       389  1.88749e-08
         1       307       438       308       438  8.13936e-09
         1       277       390       278       390  7.05681e-08
         1       267       556       268       556    0.0102868
         1       282       391       281       391  1.06864e-07
         1       276       432       275       432  2.38983e-09
         1       213       295       214       295  7.61334e-10
         1       212       289       213       289  5.93545e-09
         1       212       287       213       287  5.12102e-09
         1       276       328       277       328  5.35551e-08
         1       276       328       276       327  5.35551e-08
         1       258       337       259       337    0.0437317
         1       311       385       311       386   2.1845e-05
         1       308       423       309       423  2.99286e-09
         1       276       329       277       329   2.6909e-09
         1       185       247       186       247  3.97105e-08
         1       312       389       312       390  7.97182e-06
         1       308       424       309       424  1.89679e-06
         1       186       248       187       248  1.49397e-08
         1       186       248       186       247  1.49397e-08
         1       212       286       213       286  5.85179e-08
         1       212       286       212       285  5.85179e-08
         1       259       338       259       337  1.04198e-05
         1       282       388       281       388  1.93031e-08
         1       212       288       213       288  1.10114e-07
         1       159       165       160       165  5.97495e-09
         1       318       426       317       426  1.52313e-08
         1       277       339       276       339  5.36957e-08
         1       277       339       277       340  5.36957e-08
         1       282       387       282       386  3.81422e-05
         1       266       562       267       562  7.49921e-09
         1       277       391       278       391  5.74921e-09
         1       256       329       256       330    0.0271618
         1       278       425       277       425  1.10203e-08
         1       278       426       277       426  2.36388e-08
         1       258       382       259       382  1.91535e-07
         1       258       382       259       382  1.91535e-07
         1       258       334       257       334   0.00553504
         1       258       334       258       335   0.00553504
         1       278       424       279       424  8.00485e-10
         1       278       424       278       425  8.00485e-10
         1       277       387       278       387  7.42809e-10
         1       275       322       276       322  8.12307e-09
         1       275       322       275       321  8.12307e-09
         1       275       326       276       326  2.04437e-10
         1       160       161       161       161  5.62981e-09
         1       160       161       160       162  5.62981e-09
         1       186       250       187       250  9.72655e-09
         1       307       444       308       444  5.22711e-08
         1       187       251       187       250  9.55592e-05
         1       275       327       276       327  1.71867e-09
         1       318       425       317       425  5.26985e-09
         1       275       323       276       323   5.0187e-08
         1       314       412       315       412  3.22202e-08
         1       256       175       257       175  1.22187e-08
         1       257       332       256       332   0.00914455
         1       257       332       257       333   0.00914455
         1       318       424       317       424  1.40069e-08
         1       268       550       269       550  4.36581e-10
         1       268       550       269       550  4.36581e-10
         1       257       604       258       604   9.8675e-09
         1       317       423       317       424   4.2691e-05
         1       257       331       256       331    0.0205515
         1       185       245       186       245  1.11448e-08
         1       308       452       309       452   2.2745e-05
         1       307       425       308       425  7.86612e-10
         1       274       321       275       321  9.65745e-09
         1       263       579       264       579   2.2246e-08
         1       313       414       314       414  3.74553e-09
         1       312       386       311       386  1.37395e-08
         1       307       451       308       451  2.42406e-08
         1       256       330       257       330   0.00504441
         1       256       174       257       174  1.30261e-05
         1       282       387       281       387  3.81422e-05
         1       263       580       264       580  7.87392e-05
         1       258       381       259       381   0.00460294
         1       258       381       259       381   0.00460294
         1       311       382       310       382  9.12915e-07
         1       311       381       310       381  1.05918e-05
         1       257       605       258       605  2.41614e-05
         1       256       178       257       178  8.57445e-07
         1       222       354       223       354   2.9254e-06
         1       222       354       223       354   2.9254e-06
         1       312       389       311       389  7.97182e-06
         1       308       453       309       453  5.36337e-06
         1       307       450       308       450  1.49351e-05
         1       308       424       308       425  1.89679e-06
         1       307       445       308       445  1.92765e-06
         1       314       413       315       413  7.21538e-06
         1       314       413       314       414  7.21538e-06
         1       308       452       308       451   2.2745e-05
         1       311       380       310       380  3.35269e-07
         1       159       164       160       164  5.70652e-05
         1       264       577       265       577   0.00597582
         1       311       378       310       378  4.57145e-05
         1       311       379       310       379   4.3604e-06
         1       257       333       258       333      16.5536
         1       255       168       256       168  9.12889e-06
         1       310       420       311       420  2.87914e-05
         1       310       420       310       421  2.87914e-05
         1       255       171       256       171  6.30253e-06
         1       318       428       317       428    7.613e-06
         1       277       396       278       396  6.06757e-05
         1       263       581       264       581  3.26324e-06
         1       312       416       313       416  5.97003e-05
         1       277       393       278       393  2.41844e-05
         1       257       181       258       181  3.34225e-06
         1       222       353       223       353  9.63426e-05
         1       259       384       260       384  2.91097e-05
         1       259       384       260       384  2.91097e-05
         1       256       173       257       173  3.12527e-06
         1       311       377       310       377  4.07077e-06
         1       255       167       256       167   9.9235e-05
         1       255       167       255       166   9.9235e-05
         1       179       231       180       231  6.36265e-07
         1       311       385       310       385   2.1845e-05
         1       256       177       257       177  2.53396e-05
         1       223       352       224       352  0.000115378
         1       223       352       223       353  0.000115378
         1       277       392       278       392  7.48729e-06
         1       274       320       275       320  1.08813e-05
         1       186       249       187       249  6.70649e-05
         1       275       325       276       325  5.26473e-05
         1       282       392       281       392  5.71656e-06
         1       282       394       281       394  2.24223e-06
         1       278       427       277       427  2.60057e-06
         1       313       415       314       415  2.38301e-05
         1       313       415       313       416  2.38301e-05
         1       315       411       316       411  2.24214e-05
         1       315       411       315       412  2.24214e-05
         1       194       145       195       145  0.000105995
         1       256       172       257       172  1.16004e-05
         1       256       172       256       171  1.16004e-05
         1       161       213       162       213   8.6322e-06
         1       211       285       212       285  3.06395e-06
         1       308       454       309       454  3.01409e-05
         1       257       180       258       180  8.59496e-07
         1       307       446       308       446  9.69493e-06
         1       256       176       257       176  1.02848e-05
         1       317       422       316       422  1.01756e-06
         1       311       374       310       374  8.02353e-07
         1       263       583       264       583  8.75001e-06
         1       223       351       224       351   1.0369e-05
         1       160       209       161       209  5.00686e-07
         1       283       386       282       386  7.40574e-06
         1       282       393       281       393  3.11624e-06
         1       329       423       330       423  7.55725e-06
         1       274       318       275       318   4.8074e-05
         1       313       390       312       390  6.11072e-06
         1       160       208       161       208  2.79353e-06
         1       307       449       308       449  4.21545e-06
         1       274       317       275       317  2.70404e-05
         1       274       317       274       316  2.70404e-05
         1       254       164       255       164  2.42438e-06
         1       195       150       196       150  9.87587e-07
         1       330       424       331       424   3.4228e-06
         1       330       424       330       423   3.4228e-06
         1       311       419       312       419   6.7688e-07
         1       311       419       311       420   6.7688e-07
         1       160       205       161       205      45.2593
         1       253       162       254       162  2.16921e-06
         1       311       418       312       418  6.92653e-06
         1       311       376       310       376  3.00112e-06
         1       317       423       316       423   4.2691e-05
         1       317       421       316       421  3.98466e-06
         1       277       395       278       395   6.4965e-07
         1       177       135       178       135    0.0105765
         1       177       135       178       135    0.0105765
         1       308       455       309       455  6.26495e-06
         1       310       473       311       473  7.11689e-06
         1       194       144       195       144  4.66735e-06
         1       260       341       261       341  3.70305e-05
         1       260       341       260       340  3.70305e-05
         1       255       170       256       170  1.68679e-05
         1       211       284       212       284  2.22699e-05
         1       311       375       310       375  1.32276e-06
         1       277       394       278       394  1.09414e-06
         1       307       447       308       447  5.58534e-06
         1       178       136       179       136    0.0018168
         1       178       136       178       135    0.0018168
         1       258       335       259       335      2.23229
         1       179       137       180       137  0.000870443
         1       179       137       179       136  0.000870443
         1       274       319       275       319  2.04906e-05
         1       259       338       260       338  1.04198e-05
         1       211       283       212       283  4.77161e-05
         1       223       350       224       350  1.65116e-06
         1       160       206       161       206  5.35526e-06
         1       275       324       276       324  1.20602e-05
         1       228       234       229       234  4.72911e-05
         1       317       420       316       420  4.28956e-06
         1       229       235       230       235  0.000105185
         1       229       235       229       234  0.000105185
         1       159       162       160       162   2.0983e-06
         1       311       384       310       384  2.01337e-06
         1       254       163       255       163  9.15785e-06
         1       254       163       254       162  9.15785e-06
         1       308       456       309       456  1.23788e-05
         1       257       182       258       182  1.20656e-05
         1       312       417       313       417  2.16978e-06
         1       312       417       312       418  2.16978e-06
         1       160       207       161       207  4.36062e-06
         1       259       340       260       340  5.34356e-06
         1       282       395       281       395  6.34717e-06
         1       254       374       255       374  8.23369e-06
         1       161       212       162       212  8.35315e-06
         1       280       424       281       424  3.72119e-05
         1       177       134       178       134    0.0777472
         1       179       229       180       229  0.000410501
         1       130        81       131        81  7.06128e-06
         1       130        81       130        80  7.06128e-06
         1       159       203       160       203  2.13069e-06
         1       308       457       309       457   1.1022e-05
         1       161       210       162       210  1.62355e-05
         1       161       210       161       209  1.62355e-05
         1       229       236       230       236  0.000105602
         1       255       169       256       169  1.03365e-05
         1       324       391       325       391  3.01183e-05
         1       324       391       324       390  3.01183e-05
         1       311       373       310       373  1.37341e-06
         1       195       146       196       146  1.04258e-05
         1       195       146       195       145  1.04258e-05
         1       318       430       317       430  6.57157e-06
         1       278       428       277       428  1.61281e-06
         1       307       448       308       448   5.0268e-06
         1       195       149       196       149  1.06735e-05
         1       308       458       309       458  2.35563e-06
         1       177       133       178       133   0.00461313
         1       177       133       177       132   0.00461313
         1       273       316       274       316  4.43268e-05
         1       159       204       160       204  4.55051e-06
         1       162       214       163       214  3.55328e-05
         1       162       214       162       213  3.55328e-05
         1       318       431       317       431  4.39018e-06
         1       318       433       317       433  4.55121e-06
         1       318       433       318       434  4.55121e-06
         1       311       383       310       383  1.34794e-05
         1       194       284       193       284  2.73846e-06
         1       257       184       258       184  3.73162e-06
         1       268       551       269       551     0.020817
         1       159       202       160       202  8.77349e-06
         1       260       342       261       342  2.78269e-05
         1       331       428       332       428  0.000150482
         1       325       402       326       402  5.61028e-06
         1       317       412       316       412  4.73309e-06
         1       257       183       258       183  4.39429e-06
         1       276       330       277       330  3.12778e-05
         1       250       617       251       617   0.00149268
         1       250       617       251       617   0.00149268
         1       331       427       332       427   2.3117e-06
         1       331       427       331       426   2.3117e-06
         1       310       471       311       471  3.88784e-06
         1       254       375       255       375  4.92417e-05
         1       294       415       295       415  3.90063e-06
         1       309       421       310       421  6.47583e-06
         1       160       159       161       159  8.64193e-05
         1       160       159       161       159  8.64193e-05
         1       282       396       281       396   2.7416e-06
         1       313       392       312       392  2.19408e-05
         1       313       392       313       393  2.19408e-05
         1       185       246       186       246  2.06667e-05
         1       312       388       311       388  9.26756e-06
         1       268       473       269       473  0.000468972
         1       268       473       268       472  0.000468972
         1       188       254       188       253   0.00565212
         1       258       603       259       603  7.05291e-06
         1       159       163       160       163    0.0156001
         1       256       377       257       377  1.37847e-05
         1       256       377       256       376  1.37847e-05
         1       254       166       255       166  5.38508e-07
         1       187       253       188       253  6.38709e-06
         1       328       415       329       415  3.76638e-06
         1       255       376       256       376   6.6846e-06
         1       255       376       255       375   6.6846e-06
         1       317       417       316       417  1.32033e-05
         1       176       132       177       132      8.66745
         1       317       413       316       413  5.41728e-06
         1       272       492       273       492  3.58782e-11
         1       228       233       229       233  5.47069e-06
         1       317       414       316       414  4.30604e-05
         1       211       282       212       282  3.48759e-05
         1       211       282       211       281  3.48759e-05
         1       194       283       193       283   1.1425e-06
         1       266       557       265       557   3.5125e-05
         1       266       557       266       556   3.5125e-05
         1       225       380       225       379   0.00276315
         1       179       230       180       230  3.02627e-06
         1       325       401       326       401  4.91952e-06
         1       265       566       266       566  3.17679e-05
         1       228       231       229       231  1.32527e-05
         1       228       232       229       232  7.48414e-05
         1       294       414       295       414  2.36372e-06
         1       283       414       283       413  1.47014e-05
         1       283       385       282       385  1.70855e-05
         1       254       323       255       323  1.23526e-05
         1       257       185       258       185  1.28742e-05
         1       270       433       271       433  7.28673e-05
         1       317       415       316       415  2.69981e-05
         1       309       422       310       422  5.93474e-06
         1       309       422       309       423  5.93474e-06
         1       253       159       254       159  1.96961e-05
         1       253       159       253       158  1.96961e-05
         1       319       434       318       434  9.47077e-07
         1       162       215       163       215  1.45923e-06
         1       226       218       227       218  1.32797e-05
         1       328       417       329       417  3.14704e-05
         1       308       459       309       459  4.29003e-05
         1       163       217       164       217  7.07289e-06
         1       294       416       295       416  2.04841e-05