## Start with
# GMG package for MODFLOW-2005 generated by Flopy 3.3.6
#100.0 60 5.0 100
#0.4 1 2 0
100.0 60 7.0 100
0.4 1 2 0
0 1 
0.97
