# DRN package for MODFLOW-2005 generated by Flopy 3.3.6
         8        53
         8         0 # stress period 1
         1       180       128           838.4        150386.0
         1        51        19          1105.0       1338710.0
         1       274       536           607.0       5976980.0
         1       284       420           662.0         50337.7
         1       259       602           576.0       1872600.0
         1       173       131           835.0         84326.3
         1       261       541           619.0      15957000.0
         1       284       430           670.0       5988540.0
         8         0 # stress period 2
         1       180       128           838.4        150386.0
         1        51        19          1105.0       1338710.0
         1       274       536           607.0       5976980.0
         1       284       420           662.0         50337.7
         1       259       602           576.0       1872600.0
         1       173       131           835.0         84326.3
         1       261       541           619.0      15957000.0
         1       284       430           670.0       5988540.0
         8         0 # stress period 3
         1       180       128           838.4        150386.0
         1        51        19          1105.0       1338710.0
         1       274       536           607.0       5976980.0
         1       284       420           662.0         50337.7
         1       259       602           576.0       1872600.0
         1       173       131           835.0         84326.3
         1       261       541           619.0      15957000.0
         1       284       430           670.0       5988540.0
         8         0 # stress period 4
         1       180       128           838.4        150386.0
         1        51        19          1105.0       1338710.0
         1       274       536           607.0       5976980.0
         1       284       420           662.0         50337.7
         1       259       602           576.0       1872600.0
         1       173       131           835.0         84326.3
         1       261       541           619.0      15957000.0
         1       284       430           670.0       5988540.0
         8         0 # stress period 5
         1       180       128           838.4        150386.0
         1        51        19          1105.0       1338710.0
         1       274       536           607.0       5976980.0
         1       284       420           662.0         50337.7
         1       259       602           576.0       1872600.0
         1       173       131           835.0         84326.3
         1       261       541           619.0      15957000.0
         1       284       430           670.0       5988540.0
         8         0 # stress period 6
         1       180       128           838.4        150386.0
         1        51        19          1105.0       1338710.0
         1       274       536           607.0       5976980.0
         1       284       420           662.0         50337.7
         1       259       602           576.0       1872600.0
         1       173       131           835.0         84326.3
         1       261       541           619.0      15957000.0
         1       284       430           670.0       5988540.0
         8         0 # stress period 7
         1       180       128           838.4        150386.0
         1        51        19          1105.0       1338710.0
         1       274       536           607.0       5976980.0
         1       284       420           662.0         50337.7
         1       259       602           576.0       1872600.0
         1       173       131           835.0         84326.3
         1       261       541           619.0      15957000.0
         1       284       430           670.0       5988540.0
         8         0 # stress period 8
         1       180       128           838.4        150386.0
         1        51        19          1105.0       1338710.0
         1       274       536           607.0       5976980.0
         1       284       420           662.0         50337.7
         1       259       602           576.0       1872600.0
         1       173       131           835.0         84326.3
         1       261       541           619.0      15957000.0
         1       284       430           670.0       5988540.0
         8         0 # stress period 9
         1       180       128           838.4        150386.0
         1        51        19          1105.0       1338710.0
         1       274       536           607.0       5976980.0
         1       284       420           662.0         50337.7
         1       259       602           576.0       1872600.0
         1       173       131           835.0         84326.3
         1       261       541           619.0      15957000.0
         1       284       430           670.0       5988540.0
         8         0 # stress period 10
         1       180       128           838.4        150386.0
         1        51        19          1105.0       1338710.0
         1       274       536           607.0       5976980.0
         1       284       420           662.0         50337.7
         1       259       602           576.0       1872600.0
         1       173       131           835.0         84326.3
         1       261       541           619.0      15957000.0
         1       284       430           670.0       5988540.0
         8         0 # stress period 11
         1       180       128           838.4        150386.0
         1        51        19          1105.0       1338710.0
         1       274       536           607.0       5976980.0
         1       284       420           662.0         50337.7
         1       259       602           576.0       1872600.0
         1       173       131           835.0         84326.3
         1       261       541           619.0      15957000.0
         1       284       430           670.0       5988540.0
         8         0 # stress period 12
         1       180       128           838.4        150386.0
         1        51        19          1105.0       1338710.0
         1       274       536           607.0       5976980.0
         1       284       420           662.0         50337.7
         1       259       602           576.0       1872600.0
         1       173       131           835.0         84326.3
         1       261       541           619.0      15957000.0
         1       284       430           670.0       5988540.0
         8         0 # stress period 13
         1       180       128           838.4        150386.0
         1        51        19          1105.0       1338710.0
         1       274       536           607.0       5976980.0
         1       284       420           662.0         50337.7
         1       259       602           576.0       1872600.0
         1       173       131           835.0         84326.3
         1       261       541           619.0      15957000.0
         1       284       430           670.0       5988540.0
         8         0 # stress period 14
         1       180       128           838.4        150386.0
         1        51        19          1105.0       1338710.0
         1       274       536           607.0       5976980.0
         1       284       420           662.0         50337.7
         1       259       602           576.0       1872600.0
         1       173       131           835.0         84326.3
         1       261       541           619.0      15957000.0
         1       284       430           670.0       5988540.0
         8         0 # stress period 15
         1       180       128           838.4        150386.0
         1        51        19          1105.0       1338710.0
         1       274       536           607.0       5976980.0
         1       284       420           662.0         50337.7
         1       259       602           576.0       1872600.0
         1       173       131           835.0         84326.3
         1       261       541           619.0      15957000.0
         1       284       430           670.0       5988540.0
         8         0 # stress period 16
         1       180       128           838.4        150386.0
         1        51        19          1105.0       1338710.0
         1       274       536           607.0       5976980.0
         1       284       420           662.0         50337.7
         1       259       602           576.0       1872600.0
         1       173       131           835.0         84326.3
         1       261       541           619.0      15957000.0
         1       284       430           670.0       5988540.0
         8         0 # stress period 17
         1       180       128           838.4        150386.0
         1        51        19          1105.0       1338710.0
         1       274       536           607.0       5976980.0
         1       284       420           662.0         50337.7
         1       259       602           576.0       1872600.0
         1       173       131           835.0         84326.3
         1       261       541           619.0      15957000.0
         1       284       430           670.0       5988540.0
         8         0 # stress period 18
         1       180       128           838.4        150386.0
         1        51        19          1105.0       1338710.0
         1       274       536           607.0       5976980.0
         1       284       420           662.0         50337.7
         1       259       602           576.0       1872600.0
         1       173       131           835.0         84326.3
         1       261       541           619.0      15957000.0
         1       284       430           670.0       5988540.0
         8         0 # stress period 19
         1       180       128           838.4        150386.0
         1        51        19          1105.0       1338710.0
         1       274       536           607.0       5976980.0
         1       284       420           662.0         50337.7
         1       259       602           576.0       1872600.0
         1       173       131           835.0         84326.3
         1       261       541           619.0      15957000.0
         1       284       430           670.0       5988540.0
         8         0 # stress period 20
         1       180       128           838.4        150386.0
         1        51        19          1105.0       1338710.0
         1       274       536           607.0       5976980.0
         1       284       420           662.0         50337.7
         1       259       602           576.0       1872600.0
         1       173       131           835.0         84326.3
         1       261       541           619.0      15957000.0
         1       284       430           670.0       5988540.0
         8         0 # stress period 21
         1       180       128           838.4        150386.0
         1        51        19          1105.0       1338710.0
         1       274       536           607.0       5976980.0
         1       284       420           662.0         50337.7
         1       259       602           576.0       1872600.0
         1       173       131           835.0         84326.3
         1       261       541           619.0      15957000.0
         1       284       430           670.0       5988540.0
         8         0 # stress period 22
         1       180       128           838.4        150386.0
         1        51        19          1105.0       1338710.0
         1       274       536           607.0       5976980.0
         1       284       420           662.0         50337.7
         1       259       602           576.0       1872600.0
         1       173       131           835.0         84326.3
         1       261       541           619.0      15957000.0
         1       284       430           670.0       5988540.0
         8         0 # stress period 23
         1       180       128           838.4        150386.0
         1        51        19          1105.0       1338710.0
         1       274       536           607.0       5976980.0
         1       284       420           662.0         50337.7
         1       259       602           576.0       1872600.0
         1       173       131           835.0         84326.3
         1       261       541           619.0      15957000.0
         1       284       430           670.0       5988540.0
         8         0 # stress period 24
         1       180       128           838.4        150386.0
         1        51        19          1105.0       1338710.0
         1       274       536           607.0       5976980.0
         1       284       420           662.0         50337.7
         1       259       602           576.0       1872600.0
         1       173       131           835.0         84326.3
         1       261       541           619.0      15957000.0
         1       284       430           670.0       5988540.0
         8         0 # stress period 25
         1       180       128           838.4        150386.0
         1        51        19          1105.0       1338710.0
         1       274       536           607.0       5976980.0
         1       284       420           662.0         50337.7
         1       259       602           576.0       1872600.0
         1       173       131           835.0         84326.3
         1       261       541           619.0      15957000.0
         1       284       430           670.0       5988540.0
         8         0 # stress period 26
         1       180       128           838.4        150386.0
         1        51        19          1105.0       1338710.0
         1       274       536           607.0       5976980.0
         1       284       420           662.0         50337.7
         1       259       602           576.0       1872600.0
         1       173       131           835.0         84326.3
         1       261       541           619.0      15957000.0
         1       284       430           670.0       5988540.0
         8         0 # stress period 27
         1       180       128           838.4        150386.0
         1        51        19          1105.0       1338710.0
         1       274       536           607.0       5976980.0
         1       284       420           662.0         50337.7
         1       259       602           576.0       1872600.0
         1       173       131           835.0         84326.3
         1       261       541           619.0      15957000.0
         1       284       430           670.0       5988540.0
         8         0 # stress period 28
         1       180       128           838.4        150386.0
         1        51        19          1105.0       1338710.0
         1       274       536           607.0       5976980.0
         1       284       420           662.0         50337.7
         1       259       602           576.0       1872600.0
         1       173       131           835.0         84326.3
         1       261       541           619.0      15957000.0
         1       284       430           670.0       5988540.0
         8         0 # stress period 29
         1       180       128           838.4        150386.0
         1        51        19          1105.0       1338710.0
         1       274       536           607.0       5976980.0
         1       284       420           662.0         50337.7
         1       259       602           576.0       1872600.0
         1       173       131           835.0         84326.3
         1       261       541           619.0      15957000.0
         1       284       430           670.0       5988540.0
         8         0 # stress period 30
         1       180       128           838.4        150386.0
         1        51        19          1105.0       1338710.0
         1       274       536           607.0       5976980.0
         1       284       420           662.0         50337.7
         1       259       602           576.0       1872600.0
         1       173       131           835.0         84326.3
         1       261       541           619.0      15957000.0
         1       284       430           670.0       5988540.0
         8         0 # stress period 31
         1       180       128           838.4        150386.0
         1        51        19          1105.0       1338710.0
         1       274       536           607.0       5976980.0
         1       284       420           662.0         50337.7
         1       259       602           576.0       1872600.0
         1       173       131           835.0         84326.3
         1       261       541           619.0      15957000.0
         1       284       430           670.0       5988540.0
         8         0 # stress period 32
         1       180       128           838.4        150386.0
         1        51        19          1105.0       1338710.0
         1       274       536           607.0       5976980.0
         1       284       420           662.0         50337.7
         1       259       602           576.0       1872600.0
         1       173       131           835.0         84326.3
         1       261       541           619.0      15957000.0
         1       284       430           670.0       5988540.0
         8         0 # stress period 33
         1       180       128           838.4        150386.0
         1        51        19          1105.0       1338710.0
         1       274       536           607.0       5976980.0
         1       284       420           662.0         50337.7
         1       259       602           576.0       1872600.0
         1       173       131           835.0         84326.3
         1       261       541           619.0      15957000.0
         1       284       430           670.0       5988540.0
         8         0 # stress period 34
         1       180       128           838.4        150386.0
         1        51        19          1105.0       1338710.0
         1       274       536           607.0       5976980.0
         1       284       420           662.0         50337.7
         1       259       602           576.0       1872600.0
         1       173       131           835.0         84326.3
         1       261       541           619.0      15957000.0
         1       284       430           670.0       5988540.0
         8         0 # stress period 35
         1       180       128           838.4        150386.0
         1        51        19          1105.0       1338710.0
         1       274       536           607.0       5976980.0
         1       284       420           662.0         50337.7
         1       259       602           576.0       1872600.0
         1       173       131           835.0         84326.3
         1       261       541           619.0      15957000.0
         1       284       430           670.0       5988540.0
         8         0 # stress period 36
         1       180       128           838.4        150386.0
         1        51        19          1105.0       1338710.0
         1       274       536           607.0       5976980.0
         1       284       420           662.0         50337.7
         1       259       602           576.0       1872600.0
         1       173       131           835.0         84326.3
         1       261       541           619.0      15957000.0
         1       284       430           670.0       5988540.0
         8         0 # stress period 37
         1       180       128           838.4        150386.0
         1        51        19          1105.0       1338710.0
         1       274       536           607.0       5976980.0
         1       284       420           662.0         50337.7
         1       259       602           576.0       1872600.0
         1       173       131           835.0         84326.3
         1       261       541           619.0      15957000.0
         1       284       430           670.0       5988540.0
         8         0 # stress period 38
         1       180       128           838.4        150386.0
         1        51        19          1105.0       1338710.0
         1       274       536           607.0       5976980.0
         1       284       420           662.0         50337.7
         1       259       602           576.0       1872600.0
         1       173       131           835.0         84326.3
         1       261       541           619.0      15957000.0
         1       284       430           670.0       5988540.0
         8         0 # stress period 39
         1       180       128           838.4        150386.0
         1        51        19          1105.0       1338710.0
         1       274       536           607.0       5976980.0
         1       284       420           662.0         50337.7
         1       259       602           576.0       1872600.0
         1       173       131           835.0         84326.3
         1       261       541           619.0      15957000.0
         1       284       430           670.0       5988540.0
         8         0 # stress period 40
         1       180       128           838.4        150386.0
         1        51        19          1105.0       1338710.0
         1       274       536           607.0       5976980.0
         1       284       420           662.0         50337.7
         1       259       602           576.0       1872600.0
         1       173       131           835.0         84326.3
         1       261       541           619.0      15957000.0
         1       284       430           670.0       5988540.0
         8         0 # stress period 41
         1       180       128           838.4        150386.0
         1        51        19          1105.0       1338710.0
         1       274       536           607.0       5976980.0
         1       284       420           662.0         50337.7
         1       259       602           576.0       1872600.0
         1       173       131           835.0         84326.3
         1       261       541           619.0      15957000.0
         1       284       430           670.0       5988540.0
         8         0 # stress period 42
         1       180       128           838.4        150386.0
         1        51        19          1105.0       1338710.0
         1       274       536           607.0       5976980.0
         1       284       420           662.0         50337.7
         1       259       602           576.0       1872600.0
         1       173       131           835.0         84326.3
         1       261       541           619.0      15957000.0
         1       284       430           670.0       5988540.0
         8         0 # stress period 43
         1       180       128           838.4        150386.0
         1        51        19          1105.0       1338710.0
         1       274       536           607.0       5976980.0
         1       284       420           662.0         50337.7
         1       259       602           576.0       1872600.0
         1       173       131           835.0         84326.3
         1       261       541           619.0      15957000.0
         1       284       430           670.0       5988540.0
         8         0 # stress period 44
         1       180       128           838.4        150386.0
         1        51        19          1105.0       1338710.0
         1       274       536           607.0       5976980.0
         1       284       420           662.0         50337.7
         1       259       602           576.0       1872600.0
         1       173       131           835.0         84326.3
         1       261       541           619.0      15957000.0
         1       284       430           670.0       5988540.0
         8         0 # stress period 45
         1       180       128           838.4        150386.0
         1        51        19          1105.0       1338710.0
         1       274       536           607.0       5976980.0
         1       284       420           662.0         50337.7
         1       259       602           576.0       1872600.0
         1       173       131           835.0         84326.3
         1       261       541           619.0      15957000.0
         1       284       430           670.0       5988540.0
         8         0 # stress period 46
         1       180       128           838.4        150386.0
         1        51        19          1105.0       1338710.0
         1       274       536           607.0       5976980.0
         1       284       420           662.0         50337.7
         1       259       602           576.0       1872600.0
         1       173       131           835.0         84326.3
         1       261       541           619.0      15957000.0
         1       284       430           670.0       5988540.0
         8         0 # stress period 47
         1       180       128           838.4        150386.0
         1        51        19          1105.0       1338710.0
         1       274       536           607.0       5976980.0
         1       284       420           662.0         50337.7
         1       259       602           576.0       1872600.0
         1       173       131           835.0         84326.3
         1       261       541           619.0      15957000.0
         1       284       430           670.0       5988540.0
         8         0 # stress period 48
         1       180       128           838.4        150386.0
         1        51        19          1105.0       1338710.0
         1       274       536           607.0       5976980.0
         1       284       420           662.0         50337.7
         1       259       602           576.0       1872600.0
         1       173       131           835.0         84326.3
         1       261       541           619.0      15957000.0
         1       284       430           670.0       5988540.0
         8         0 # stress period 49
         1       180       128           838.4        150386.0
         1        51        19          1105.0       1338710.0
         1       274       536           607.0       5976980.0
         1       284       420           662.0         50337.7
         1       259       602           576.0       1872600.0
         1       173       131           835.0         84326.3
         1       261       541           619.0      15957000.0
         1       284       430           670.0       5988540.0
         8         0 # stress period 50
         1       180       128           838.4        150386.0
         1        51        19          1105.0       1338710.0
         1       274       536           607.0       5976980.0
         1       284       420           662.0         50337.7
         1       259       602           576.0       1872600.0
         1       173       131           835.0         84326.3
         1       261       541           619.0      15957000.0
         1       284       430           670.0       5988540.0
         8         0 # stress period 51
         1       180       128           838.4        150386.0
         1        51        19          1105.0       1338710.0
         1       274       536           607.0       5976980.0
         1       284       420           662.0         50337.7
         1       259       602           576.0       1872600.0
         1       173       131           835.0         84326.3
         1       261       541           619.0      15957000.0
         1       284       430           670.0       5988540.0
         8         0 # stress period 52
         1       180       128           838.4        150386.0
         1        51        19          1105.0       1338710.0
         1       274       536           607.0       5976980.0
         1       284       420           662.0         50337.7
         1       259       602           576.0       1872600.0
         1       173       131           835.0         84326.3
         1       261       541           619.0      15957000.0
         1       284       430           670.0       5988540.0
         8         0 # stress period 53
         1       180       128           838.4        150386.0
         1        51        19          1105.0       1338710.0
         1       274       536           607.0       5976980.0
         1       284       420           662.0         50337.7
         1       259       602           576.0       1872600.0
         1       173       131           835.0         84326.3
         1       261       541           619.0      15957000.0
         1       284       430           670.0       5988540.0
         8         0 # stress period 54
         1       180       128           838.4        150386.0
         1        51        19          1105.0       1338710.0
         1       274       536           607.0       5976980.0
         1       284       420           662.0         50337.7
         1       259       602           576.0       1872600.0
         1       173       131           835.0         84326.3
         1       261       541           619.0      15957000.0
         1       284       430           670.0       5988540.0
         8         0 # stress period 55
         1       180       128           838.4        150386.0
         1        51        19          1105.0       1338710.0
         1       274       536           607.0       5976980.0
         1       284       420           662.0         50337.7
         1       259       602           576.0       1872600.0
         1       173       131           835.0         84326.3
         1       261       541           619.0      15957000.0
         1       284       430           670.0       5988540.0